geometry optimzed in LAMMPS
_audit_creation_date              2020-11-30 
_audit_creation_method            'lammps2cif' 
_symmetry_space_group_name_H-M    'P1' 
_symmetry_Int_Tables_number       1 
_symmetry_cell_setting            triclinic 
loop_ 
_symmetry_equiv_pos_as_xyz 
  x,y,z 
_cell_length_a                    43.80381566 
_cell_length_b                    43.61109327639103 
_cell_length_c                    43.59999585775208 
_cell_angle_alpha                 90.0659497201572 
_cell_angle_beta                  90.03402636545509 
_cell_angle_gamma                 89.95494043152416 
loop_ 
_atom_site_label 
_atom_site_type_symbol 
_atom_site_fract_x 
_atom_site_fract_y 
_atom_site_fract_z 
_atom_site_charge 
O1          O  0.00124552  0.05049346  0.08740815    -0.87000
O2          O  0.99964722  0.05044975  0.41307582    -0.87100
O3          O  0.04855939  0.08855788  0.00020004    -0.88800
O4          O  0.45116056  0.08746393  0.99913407    -0.87600
O5          O  0.41448265  0.05002404  0.99861337    -0.87100
O6          O  0.08582741  0.05164051  0.00124700    -0.88500
O7          O  0.99877476  0.08771444  0.45019148    -0.87000
O8          O  0.00086090  0.08763775  0.05016761    -0.86600
Zr9        Zr  0.99913561  0.06251833  0.00054172     2.84300
O10         O  0.46846110  0.03018735  0.46832299    -1.08600
O11         O  0.03045538  0.03209758  0.03156686    -1.09300
C12         C  0.00155002  0.07867857  0.07835000     1.06100
C13         C  0.99924666  0.07869900  0.42194208     1.06100
C14         C  0.07678922  0.07983144  0.00070316     1.09100
C15         C  0.42309645  0.07836056  0.99866220     1.06900
H16         H  0.04358089  0.04517729  0.45601453     0.32400
O17         O  0.03093379  0.03219615  0.46865597    -1.29500
H18         H  0.45697308  0.04420827  0.04319503     0.32100
O19         O  0.46981848  0.03137777  0.03056353    -1.31200
O20         O  0.00015055  0.45116169  0.41242626    -0.87000
O21         O  0.99935536  0.45100743  0.08781519    -0.88500
O22         O  0.08709824  0.00033222  0.45038492    -0.87000
O23         O  0.41334034  0.99919558  0.44956372    -0.87100
O24         O  0.41447895  0.00007567  0.04962993    -0.86800
O25         O  0.08690739  0.00243797  0.04978012    -0.86600
O26         O  0.05039247  0.41260402  0.00052565    -0.87000
O27         O  0.45254033  0.41196126  0.00015759    -0.86400
O28         O  0.08737775  0.44979309  0.99861872    -0.87500
O29         O  0.41525932  0.44877989  0.99991414    -0.86700
O30         O  0.05038124  0.99991890  0.41304666    -0.87100
O31         O  0.05049574  0.00167670  0.08747956    -0.86800
O32         O  0.45114366  0.00090986  0.08707410    -0.86400
O33         O  0.45031072  0.99946706  0.41240929    -0.86800
O34         O  0.00081642  0.41396308  0.44939113    -0.87100
O35         O  0.99968432  0.41374652  0.05081158    -0.88500
Zr36       Zr  0.00058252  0.00057235  0.43792639     2.83100
Zr37       Zr  0.00046323  0.00053412  0.06268822     2.83500
Zr38       Zr  0.06147881  0.00154207  0.00046063     2.84100
Zr39       Zr  0.43934941  0.00000533  0.99960673     2.83400
Zr40       Zr  0.00097542  0.43800657  0.00057738     2.84200
O41         O  0.47060388  0.46852517  0.03087038    -1.09000
O42         O  0.03065089  0.46938898  0.46848839    -1.08500
C43         C  0.00070223  0.42291571  0.42114343     1.06100
C44         C  0.99916115  0.42278111  0.07905167     1.08700
C45         C  0.07849457  0.99981919  0.42207282     1.06300
C46         C  0.42213862  0.99944416  0.42126188     1.06700
C47         C  0.42302157  0.00049014  0.07800297     1.06200
C48         C  0.07850851  0.00230244  0.07810569     1.05800
C49         C  0.07847345  0.42148541  0.99934224     1.06200
C50         C  0.42431059  0.42056195  0.00011590     1.05700
H51         H  0.04430888  0.45626938  0.04441983     0.32400
O52         O  0.03160651  0.46907478  0.03162626    -1.30100
H53         H  0.45680871  0.45516815  0.45548419     0.32400
O54         O  0.46916626  0.46828082  0.46831903    -1.31500
O55         O  0.00211071  0.20009798  0.16297693    -0.87000
O56         O  0.99869252  0.20038694  0.33659045    -0.87100
O57         O  0.05015275  0.16392516  0.24959004    -0.88800
O58         O  0.45009359  0.16286300  0.25168170    -0.87600
O59         O  0.41319891  0.20004093  0.25168126    -0.87100
O60         O  0.08697495  0.20120085  0.24975056    -0.88500
O61         O  0.99980540  0.16303980  0.29959288    -0.87000
O62         O  0.00094192  0.16316525  0.20034652    -0.86600
Zr63       Zr  0.00022190  0.18838386  0.24982384     2.84300
O64         O  0.46901230  0.21857735  0.28153483    -1.08600
O65         O  0.03145594  0.21932472  0.21927573    -1.09300
C66         C  0.00164429  0.17194011  0.17213402     1.06100
C67         C  0.99899204  0.17214817  0.32780380     1.06100
C68         C  0.07824240  0.17288431  0.24963434     1.09100
C69         C  0.42193525  0.17181894  0.25218214     1.06900
H70         H  0.04337004  0.20644548  0.29396981     0.32400
O71         O  0.03070937  0.21923330  0.28112478    -1.29500
H72         H  0.45603091  0.20577419  0.20657035     0.32100
O73         O  0.46884248  0.21859519  0.21924196    -1.31200
O74         O  0.99914493  0.29938113  0.33682105    -0.87000
O75         O  0.99982818  0.29949816  0.16295759    -0.88500
O76         O  0.08576912  0.25024095  0.30064272    -0.87000
O77         O  0.41352889  0.24824706  0.30052140    -0.87100
O78         O  0.41307686  0.24904693  0.20093009    -0.86800
O79         O  0.08786128  0.25186227  0.20195448    -0.86600
O80         O  0.04866207  0.33776057  0.25079869    -0.87000
O81         O  0.44873154  0.33565532  0.24887190    -0.86400
O82         O  0.08592761  0.30098931  0.25217780    -0.87500
O83         O  0.41202657  0.29834827  0.24971447    -0.86700
O84         O  0.04847300  0.24930193  0.33744867    -0.87100
O85         O  0.05146422  0.25055084  0.16428978    -0.86800
O86         O  0.44998857  0.25034704  0.16368361    -0.86400
O87         O  0.45056883  0.24873883  0.33757304    -0.86800
O88         O  0.99936167  0.33663650  0.29990470    -0.87100
O89         O  0.99839388  0.33665552  0.20004556    -0.88500
Zr90       Zr  0.99909443  0.24989961  0.31144707     2.83100
Zr91       Zr  0.00079252  0.24995032  0.18800134     2.83500
Zr92       Zr  0.06132012  0.25083205  0.25068562     2.84100
Zr93       Zr  0.43835995  0.24948860  0.25059359     2.83400
Zr94       Zr  0.99929440  0.31181218  0.24995343     2.84200
O95         O  0.46862115  0.28051283  0.21920522    -1.09000
O96         O  0.03013445  0.28150803  0.28146996    -1.08500
C97         C  0.99938851  0.32763267  0.32812787     1.06100
C98         C  0.99881058  0.32770270  0.17178646     1.08700
C99         C  0.07670081  0.24944906  0.32879648     1.06300
C100        C  0.42243135  0.24814067  0.32877598     1.06700
C101        C  0.42186114  0.24963273  0.17267406     1.06200
C102        C  0.07953999  0.25144124  0.17359690     1.05800
C103        C  0.07691377  0.32922830  0.25171981     1.06200
C104        C  0.42058335  0.32660498  0.24882823     1.05700
H105        H  0.04365472  0.29457733  0.20653929     0.32400
O106        O  0.03093397  0.28157730  0.21908286    -1.30100
H107        H  0.45584289  0.29373450  0.29452458     0.32400
O108        O  0.46857595  0.28100163  0.28166738    -1.31500
O109        O  0.33789695  0.49881258  0.20124814    -0.87000
O110        O  0.16399800  0.50001567  0.20035580    -0.87100
O111        O  0.25102936  0.45108312  0.16238338    -0.88800
O112        O  0.25122906  0.05126889  0.16357805    -0.87600
O113        O  0.25118159  0.08815507  0.20103618    -0.87100
O114        O  0.25000055  0.41391878  0.19951079    -0.88500
O115        O  0.20073853  0.49993380  0.16302449    -0.87000
O116        O  0.30146748  0.49864651  0.16354231    -0.86600
Zr117      Zr  0.25092019  0.50052350  0.18780322     2.84300
O118        O  0.21952548  0.03207266  0.21842042    -1.08600
O119        O  0.28123568  0.46931815  0.21889844    -1.09300
C120        C  0.32956253  0.49821960  0.17287747     1.06100
C121        C  0.17258900  0.49961911  0.17212067     1.06100
C122        C  0.25035225  0.42289709  0.17127726     1.09100
C123        C  0.25155146  0.07940353  0.17274556     1.06900
H124        H  0.20688537  0.45680632  0.20573594     0.32400
O125        O  0.21965732  0.46959222  0.21848095    -1.29500
H126        H  0.29440206  0.04451472  0.20659079     0.32100
O127        O  0.28136708  0.03168888  0.21898234    -1.31200
O128        O  0.16331244  0.49975618  0.29917178    -0.87000
O129        O  0.33651518  0.49948694  0.30009050    -0.88500
O130        O  0.20040671  0.41363602  0.25032958    -0.87000
O131        O  0.20116397  0.08811649  0.24930590    -0.87100
O132        O  0.30019738  0.08691324  0.25189260    -0.86800
O133        O  0.29957251  0.41308772  0.24801743    -0.86600
O134        O  0.24824025  0.45026175  0.33656122    -0.87000
O135        O  0.24902904  0.04870411  0.33711303    -0.86400
O136        O  0.24947159  0.41299241  0.29942521    -0.87500
O137        O  0.24978625  0.08617394  0.30040413    -0.86700
O138        O  0.16354678  0.45083484  0.25042237    -0.87100
O139        O  0.33644709  0.45020231  0.24886083    -0.86800
O140        O  0.33666186  0.04930782  0.25151532    -0.86400
O141        O  0.16387854  0.05133423  0.24904630    -0.86800
O142        O  0.19991885  0.49962205  0.33669384    -0.87100
O143        O  0.29935755  0.49960571  0.33708206    -0.88500
Zr144      Zr  0.18905036  0.50058022  0.24970254     2.83100
Zr145      Zr  0.31168824  0.50009930  0.25024903     2.83500
Zr146      Zr  0.25013310  0.43854795  0.24963102     2.84100
Zr147      Zr  0.25032981  0.06212865  0.25019999     2.83400
Zr148      Zr  0.24983389  0.50013157  0.31159424     2.84200
O149        O  0.28054809  0.03084742  0.28123693    -1.09000
O150        O  0.21916183  0.46920380  0.28068356    -1.08500
C151        C  0.17181137  0.49939639  0.32752778     1.06100
C152        C  0.32752020  0.49927813  0.32829014     1.08700
C153        C  0.17227246  0.42249503  0.25073960     1.06300
C154        C  0.17296204  0.07954088  0.24904488     1.06700
C155        C  0.32825011  0.07765097  0.25206419     1.06200
C156        C  0.32771376  0.42195709  0.24797404     1.05800
C157        C  0.24840788  0.42199577  0.32768648     1.06200
C158        C  0.24922385  0.07700450  0.32854653     1.05700
H159        H  0.29360452  0.45597554  0.29383696     0.32400
O160        O  0.28101310  0.46894050  0.28109318    -1.30100
H161        H  0.20597589  0.04419042  0.29352767     0.32400
O162        O  0.21877884  0.03150686  0.28070119    -1.31500
O163        O  0.19947410  0.16308158  0.50120738    -0.87000
O164        O  0.20057485  0.33697597  0.49968316    -0.87100
O165        O  0.16455806  0.25009415  0.05080196    -0.88800
O166        O  0.16287789  0.24927260  0.45005606    -0.87600
O167        O  0.19981892  0.24993386  0.41286937    -0.87100
O168        O  0.20145895  0.25071522  0.08794691    -0.88500
O169        O  0.16335550  0.30016053  0.49962702    -0.87000
O170        O  0.16279923  0.20053681  0.50185800    -0.86600
Zr171      Zr  0.18822417  0.25011037  0.50003552     2.84300
O172        O  0.21876359  0.28118693  0.46900715    -1.08600
O173        O  0.21980309  0.21898198  0.03194033    -1.09300
C174        C  0.17143899  0.17219973  0.50218807     1.06100
C175        C  0.17236338  0.32839810  0.49946194     1.06100
C176        C  0.17329000  0.25050693  0.07908018     1.09100
C177        C  0.17169970  0.24949876  0.42173542     1.06900
H178        H  0.20669734  0.29432467  0.04403369     0.32400
O179        O  0.21949174  0.28147798  0.03135974    -1.29500
H180        H  0.20552265  0.20615477  0.45610021     0.32100
O181        O  0.21844111  0.21886571  0.46877519    -1.30800
O182        O  0.29996127  0.33625759  0.49996893    -0.87000
O183        O  0.29842016  0.16167275  0.50001405    -0.88500
O184        O  0.25083645  0.30020397  0.08700764    -0.87000
O185        O  0.24920261  0.30015172  0.41333692    -0.87100
O186        O  0.24888726  0.20047331  0.41268998    -0.86800
O187        O  0.25112297  0.20169972  0.08797898    -0.86600
O188        O  0.33726448  0.25128587  0.04994096    -0.87000
O189        O  0.33596935  0.24773205  0.44937789    -0.86400
O190        O  0.30044159  0.25102708  0.08727885    -0.87500
O191        O  0.29886364  0.24878844  0.41238445    -0.86700
O192        O  0.24984533  0.33733529  0.04991064    -0.87100
O193        O  0.25095369  0.16395850  0.05137745    -0.86800
O194        O  0.24881377  0.16314150  0.44956946    -0.86400
O195        O  0.24934485  0.33747754  0.45045387    -0.86800
O196        O  0.33677349  0.29888230  0.49945454    -0.87100
O197        O  0.33543639  0.19870894  0.49941388    -0.88500
Zr198      Zr  0.25008839  0.31154817  0.50008516     2.83100
Zr199      Zr  0.24927620  0.18774503  0.49963986     2.83500
Zr200      Zr  0.25077882  0.25066814  0.06200631     2.84100
Zr201      Zr  0.24939002  0.25002353  0.43806827     2.83400
Zr202      Zr  0.31119136  0.24910417  0.49912840     2.84200
O203        O  0.28016078  0.21830306  0.46830666    -1.09000
O204        O  0.28152681  0.28157980  0.03106531    -1.08500
C205        C  0.32806462  0.32724080  0.49961640     1.06100
C206        C  0.32658726  0.17045026  0.50006282     1.08700
C207        C  0.25034743  0.32837752  0.07816992     1.06300
C208        C  0.24925625  0.32844651  0.42218228     1.06700
C209        C  0.24869692  0.17220011  0.42136957     1.06200
C210        C  0.25110850  0.17339100  0.07949422     1.05800
C211        C  0.32853953  0.25132121  0.07824924     1.06200
C212        C  0.32703772  0.24783061  0.42115928     1.05700
H213        H  0.29457747  0.20676569  0.04440765     0.32400
O214        O  0.28170345  0.21930715  0.03152883    -1.30100
H215        H  0.29346983  0.29347877  0.45572028     0.32400
O216        O  0.28073554  0.28080198  0.46857488    -1.31500
C217        C  0.25231269  0.10351137  0.14897654    -0.05900
C218        C  0.24347637  0.13355918  0.15651907    -0.33400
C219        C  0.24305025  0.15660224  0.13432532     0.35900
C220        C  0.25160325  0.14982721  0.10381580    -0.06300
C221        C  0.26091392  0.11991150  0.09644622    -0.33300
C222        C  0.26160449  0.09697552  0.11866921     0.35800
H223        H  0.23635101  0.13922444  0.17963892     0.16200
O224        O  0.23397096  0.18551955  0.14280063    -0.60800
H225        H  0.26810644  0.11421674  0.07335670     0.16200
O226        O  0.27162550  0.06832091  0.11039683    -0.60900
H227        H  0.29384735  0.06832272  0.11478475     0.43200
H228        H  0.21169386  0.18617571  0.13877611     0.43100
C229        C  0.25011626  0.35224810  0.10231484    -0.05900
C230        C  0.24081501  0.38215356  0.09488526    -0.33400
C231        C  0.24043376  0.40528262  0.11703968     0.35900
C232        C  0.24989854  0.39889263  0.14732254    -0.06300
C233        C  0.25894128  0.36894177  0.15483741    -0.33300
C234        C  0.25895462  0.34570848  0.13279807     0.35800
H235        H  0.23345356  0.38769418  0.07181763     0.16200
O236        O  0.23059391  0.43397531  0.10874605    -0.60800
H237        H  0.26642510  0.36344740  0.17788168     0.16200
O238        O  0.26875388  0.31701883  0.14118399    -0.60900
H239        H  0.25085361  0.30717941  0.15101139     0.43200
H240        H  0.20813869  0.43363517  0.11166988     0.43100
C241        C  0.24784406  0.39805934  0.35184538    -0.05900
C242        C  0.26120115  0.36933919  0.34609839    -0.33400
C243        C  0.26213519  0.34671856  0.36882009     0.35900
C244        C  0.24915165  0.35231597  0.39793778    -0.06300
C245        C  0.23566796  0.38099610  0.40367039    -0.33300
C246        C  0.23468952  0.40362441  0.38090796     0.35800
H247        H  0.27164385  0.36457108  0.32407716     0.16200
O248        O  0.27638614  0.31942908  0.36241701    -0.60800
H249        H  0.22530608  0.38574002  0.42572771     0.16200
O250        O  0.22038979  0.43090682  0.38725470    -0.60900
H251        H  0.19921580  0.42839440  0.37957705     0.43200
H252        H  0.29766334  0.32201979  0.36977404     0.43100
C253        C  0.24864651  0.10101564  0.35261693    -0.05900
C254        C  0.25250000  0.13184716  0.34411062    -0.33400
C255        C  0.25200767  0.15525799  0.36591641     0.35900
C256        C  0.24823528  0.14815787  0.39728537    -0.06300
C257        C  0.24409649  0.11733716  0.40578178    -0.33300
C258        C  0.24401780  0.09395964  0.38387940     0.35800
H259        H  0.25600500  0.13808827  0.32032869     0.16200
O260        O  0.25598223  0.18487343  0.35615673    -0.60800
H261        H  0.24072318  0.11113022  0.42959110     0.16200
O262        O  0.23950396  0.06436825  0.39351162    -0.60900
H263        H  0.21706458  0.06135532  0.39308406     0.43200
H264        H  0.23533499  0.19203007  0.35011179     0.43100
C265        C  0.39783024  0.14788242  0.25307399    -0.05900
C266        C  0.40567750  0.11717319  0.24735738    -0.33400
C267        C  0.38356430  0.09408824  0.24731294     0.35900
C268        C  0.35258352  0.10139026  0.25281773    -0.06300
C269        C  0.34479959  0.13204460  0.25901709    -0.33300
C270        C  0.36694868  0.15511584  0.25921840     0.35800
H271        H  0.42911286  0.11086883  0.24251284     0.16200
O272        O  0.39256286  0.06464182  0.24087819    -0.60800
H273        H  0.32136315  0.13833518  0.26388116     0.16200
O274        O  0.35810735  0.18447072  0.26631509    -0.60900
H275        H  0.35008184  0.19314223  0.24689206     0.43200
H276        H  0.39996986  0.05623357  0.26066307     0.43100
C277        C  0.39642734  0.35061618  0.24782270    -0.05900
C278        C  0.40492392  0.38162935  0.24954015    -0.33400
C279        C  0.38311435  0.40500060  0.24915508     0.35900
C280        C  0.35171593  0.39779760  0.24715418    -0.06300
C281        C  0.34318503  0.36679129  0.24483808    -0.33300
C282        C  0.36503298  0.34337004  0.24531690     0.35800
H283        H  0.42872811  0.38805381  0.25149190     0.16200
O284        O  0.39296562  0.43474910  0.25160759    -0.60800
H285        H  0.31935575  0.36043237  0.24291996     0.16200
O286        O  0.35524895  0.31357876  0.24295841    -0.60900
H287        H  0.34935070  0.30757841  0.26407896     0.43200
H288        H  0.39808362  0.44106710  0.23037798     0.43100
C289        C  0.10232407  0.14884666  0.24959796    -0.05900
C290        C  0.13241989  0.15659975  0.24156023    -0.33400
C291        C  0.15563154  0.13451419  0.24129078     0.35900
C292        C  0.14906934  0.10377420  0.24910087    -0.06300
C293        C  0.11900540  0.09608282  0.25726983    -0.33300
C294        C  0.09580480  0.11811895  0.25746939     0.35800
H295        H  0.13807606  0.17989794  0.23511195     0.16200
O296        O  0.18439042  0.14317831  0.23238543    -0.60800
H297        H  0.11331553  0.07281265  0.26378927     0.16200
O298        O  0.06704131  0.10938207  0.26629910    -0.60900
H299        H  0.05763959  0.10028448  0.24769725     0.43200
H300        H  0.19389622  0.15217012  0.25098486     0.43100
C301        C  0.10098593  0.35346772  0.25201331    -0.05900
C302        C  0.13191417  0.34490679  0.25391471    -0.33400
C303        C  0.15522808  0.36683399  0.25380394     0.35900
C304        C  0.14810189  0.39840225  0.25154403    -0.06300
C305        C  0.11717551  0.40699312  0.24995430    -0.33300
C306        C  0.09385620  0.38504321  0.25000373     0.35800
H307        H  0.13830706  0.32095828  0.25547096     0.16200
O308        O  0.18488753  0.35685917  0.25556935    -0.60800
H309        H  0.11081955  0.43094717  0.24833439     0.16200
O310        O  0.06420115  0.39497075  0.24808755    -0.60900
H311        H  0.05960341  0.39571445  0.22581833     0.43200
H312        H  0.18963618  0.35619547  0.27780745     0.43100
C313        C  0.39785120  0.24965699  0.14866263    -0.05900
C314        C  0.40445416  0.26156186  0.11948658    -0.33400
C315        C  0.38218929  0.26250692  0.09650132     0.35900
C316        C  0.35254843  0.25121261  0.10228777    -0.06300
C317        C  0.34595380  0.23920661  0.13145256    -0.33300
C318        C  0.36829883  0.23806060  0.15437826     0.35800
H319        H  0.42692009  0.27062677  0.11450162     0.16200
O320        O  0.38970021  0.27484124  0.06857886    -0.60800
H321        H  0.32351362  0.23001473  0.13638534     0.16200
O322        O  0.36105221  0.22501782  0.18205941    -0.60900
H323        H  0.36704028  0.20315913  0.18011222     0.43200
H324        H  0.38316733  0.29659638  0.06969664     0.43100
C325        C  0.10393553  0.25187153  0.14982541    -0.05900
C326        C  0.09578037  0.24897966  0.11880424    -0.33400
C327        C  0.11784081  0.24843687  0.09570672     0.35900
C328        C  0.14916842  0.25099463  0.10315140    -0.06300
C329        C  0.15738894  0.25423246  0.13418491    -0.33300
C330        C  0.13524877  0.25488958  0.15733243     0.35800
H331        H  0.07204615  0.24680548  0.11216559     0.16200
O332        O  0.10822853  0.24546442  0.06590763    -0.60800
H333        H  0.18115191  0.25645167  0.14072001     0.16200
O334        O  0.14471275  0.25833991  0.18714296    -0.60900
H335        H  0.14522833  0.28080578  0.19070069     0.43200
H336        H  0.10648603  0.22305823  0.06238692     0.43100
C337        C  0.10078905  0.24875469  0.35275343    -0.05900
C338        C  0.13057429  0.25806513  0.34522147    -0.33400
C339        C  0.15382669  0.25828308  0.36718202     0.35900
C340        C  0.14768215  0.24905976  0.39762220    -0.06300
C341        C  0.11800425  0.23925252  0.40503137    -0.33300
C342        C  0.09480470  0.23874989  0.38293307     0.35800
H343        H  0.13593467  0.26569916  0.32220487     0.16200
O344        O  0.18238407  0.26782051  0.35850804    -0.60800
H345        H  0.11273698  0.23152178  0.42803266     0.16200
O346        O  0.06649404  0.22814259  0.39115097    -0.60900
H347        H  0.06684019  0.20588915  0.38642178     0.43200
H348        H  0.18242913  0.29033182  0.36177395     0.43100
C349        C  0.39838247  0.24741703  0.35277409    -0.05900
C350        C  0.36813569  0.24037194  0.34451542    -0.33400
C351        C  0.34474593  0.24016121  0.36633652     0.35900
C352        C  0.35121783  0.24713853  0.39728716    -0.06300
C353        C  0.38154555  0.25371090  0.40561336    -0.33300
C354        C  0.40489544  0.25408695  0.38380240     0.35800
H355        H  0.36242418  0.23488623  0.32095944     0.16200
O356        O  0.31569450  0.23307828  0.35698841    -0.60800
H357        H  0.38729166  0.25920681  0.42915738     0.16200
O358        O  0.43388846  0.26139653  0.39320825    -0.60900
H359        H  0.43506532  0.28406987  0.39187402     0.43200
H360        H  0.31442811  0.21041089  0.35822633     0.43100
C361        C  0.40019154  0.39649306  0.00021676    -0.05900
C362        C  0.36931331  0.40536021  0.99917273    -0.33400
C363        C  0.34583465  0.38367232  0.99915148     0.35900
C364        C  0.35274111  0.35205108  0.00040807    -0.06300
C365        C  0.38221491  0.34363779  0.50793708    -0.33300
C366        C  0.40538062  0.36576082  0.50827253     0.35800
H367        H  0.36305967  0.42937870  0.99828343     0.16200
O368        O  0.31623267  0.39390942  0.99822797    -0.60800
H369        H  0.38777653  0.32047819  0.51497335     0.16200
O370        O  0.43407096  0.35723801  0.51759186    -0.60900
H371        H  0.43405523  0.35982660  0.54019820     0.43200
H372        H  0.31160164  0.39678679  0.97614499     0.43100
C373        C  0.35324519  0.14842135  0.00042698    -0.05900
C374        C  0.34625469  0.11850098  0.99071128    -0.33400
C375        C  0.36871169  0.09570129  0.98952083     0.35900
C376        C  0.39894596  0.10230848  0.99864572    -0.06300
C377        C  0.40359652  0.13016238  0.50588121    -0.33300
C378        C  0.38152544  0.15329926  0.50638959     0.35800
H379        H  0.32331317  0.11275944  0.98341220     0.16200
O380        O  0.36075945  0.06712065  0.97905978    -0.60800
H381        H  0.42718239  0.13651704  0.50979428     0.16200
O382        O  0.39077650  0.18278472  0.51215887    -0.60900
H383        H  0.38950904  0.18514949  0.53475319     0.43200
H384        H  0.36486496  0.06754271  0.95669321     0.43100
C385        C  0.10223643  0.39722679  0.99869270    -0.05900
C386        C  0.12963810  0.40219718  0.98272058    -0.33400
C387        C  0.15230889  0.37952823  0.98158263     0.35900
C388        C  0.14813538  0.35150297  0.99714216    -0.06300
C389        C  0.11746892  0.34428486  0.50113076    -0.33300
C390        C  0.09427135  0.36634375  0.50119441     0.35800
H391        H  0.13331620  0.42356593  0.97062089     0.16200
O392        O  0.17823801  0.38485365  0.96479412    -0.60800
H393        H  0.11099933  0.32037563  0.50279546     0.16200
O394        O  0.06458230  0.35652939  0.50303050    -0.60900
H395        H  0.06019431  0.35500525  0.52529373     0.43200
H396        H  0.17360422  0.37704786  0.94392397     0.43100
C397        C  0.10094860  0.10372117  0.00070890    -0.05900
C398        C  0.13007229  0.09652406  0.01225794    -0.33400
C399        C  0.15359317  0.11822981  0.01242119     0.35900
C400        C  0.14832722  0.14802680  0.00102846    -0.06300
C401        C  0.11686108  0.15667560  0.49673672    -0.33300
C402        C  0.09352671  0.13482109  0.49656686     0.35800
H403        H  0.13466428  0.07397169  0.02159749     0.16200
O404        O  0.18122332  0.11037633  0.02500374    -0.60800
H405        H  0.11109740  0.18016977  0.49111209     0.16200
O406        O  0.06454273  0.14402295  0.48897894    -0.60900
H407        H  0.05589448  0.15275076  0.50811848     0.43200
H408        H  0.19195529  0.09854701  0.00882602     0.43100
C409        C  0.39789375  0.99987092  0.39728150    -0.05900
C410        C  0.36904752  0.48727251  0.40398311    -0.33400
C411        C  0.34570865  0.48762764  0.38206835     0.35900
C412        C  0.35066744  0.00084387  0.35259597    -0.06300
C413        C  0.38071151  0.99276259  0.34456796    -0.33300
C414        C  0.40408541  0.99214800  0.36642923     0.35800
H415        H  0.36402732  0.47846309  0.42665371     0.16200
O416        O  0.31759350  0.47621080  0.38986825    -0.60800
H417        H  0.38621775  0.98640553  0.32118574     0.16200
O418        O  0.43280480  0.98360103  0.35724210    -0.60900
H419        H  0.43352662  0.96103594  0.35998970     0.43200
H420        H  0.30683874  0.49344542  0.40007597     0.43100
C421        C  0.14719420  0.99856370  0.35079041    -0.05900
C422        C  0.15436973  0.50900267  0.38130597    -0.33400
C423        C  0.13183051  0.51035618  0.40400983     0.35900
C424        C  0.10255137  0.99910433  0.39798422    -0.06300
C425        C  0.09413158  0.99478469  0.36713910    -0.33300
C426        C  0.11597597  0.99433936  0.34376173     0.35800
H427        H  0.17731828  0.51615832  0.38714970     0.16200
O428        O  0.13979771  0.52083804  0.43259279    -0.60800
H429        H  0.07040032  0.99160502  0.36090256     0.16200
O430        O  0.10632011  0.98987187  0.31415772    -0.60900
H431        H  0.10657827  0.96732914  0.31110705     0.43200
H432        H  0.13537505  0.54314657  0.43224946     0.43100
C433        C  0.10296012  0.00307350  0.10158369    -0.05900
C434        C  0.09615016  0.01308418  0.13142143    -0.33400
C435        C  0.11878972  0.01447138  0.15395432     0.35900
C436        C  0.14892026  0.00507339  0.14711020    -0.06300
C437        C  0.15616640  0.50145725  0.11736087    -0.33300
C438        C  0.13393033  0.50124514  0.09440937     0.35800
H439        H  0.07322546  0.02035482  0.13729169     0.16200
O440        O  0.11109666  0.02524111  0.18250938    -0.60800
H441        H  0.17983472  0.50391966  0.11061257     0.16200
O442        O  0.14325325  0.50406834  0.06452193    -0.60900
H443        H  0.14786383  0.48285953  0.05768149     0.43200
H444        H  0.11700991  0.04719837  0.18245635     0.43100
C445        C  0.35338682  0.00105454  0.14871203    -0.05900
C446        C  0.34674996  0.48849832  0.11900809    -0.33400
C447        C  0.36900505  0.48787476  0.09596761     0.35900
C448        C  0.39875823  0.00064679  0.10201875    -0.06300
C449        C  0.40680061  0.00444326  0.13304059    -0.33300
C450        C  0.38462677  0.00462733  0.15619284     0.35800
H451        H  0.32357459  0.48217281  0.11306519     0.16200
O452        O  0.36068257  0.47844094  0.06712277    -0.60800
H453        H  0.43047553  0.00741405  0.13958923     0.16200
O454        O  0.39388999  0.00905932  0.18593310    -0.60900
H455        H  0.40070658  0.98861323  0.19315354     0.43200
H456        H  0.35112245  0.49663135  0.05741757     0.43100
C457        C  0.99944581  0.10255551  0.39779844    -0.05900
C458        C  0.98709537  0.13163988  0.40396339    -0.33400
C459        C  0.98666645  0.15444384  0.38143416     0.35900
C460        C  0.99874026  0.14840842  0.35201314    -0.06300
C461        C  0.51162940  0.11858861  0.34541309    -0.33300
C462        C  0.51179386  0.09549389  0.36760696     0.35800
H463        H  0.97726149  0.13664474  0.42621417     0.16200
O464        O  0.97320911  0.18208951  0.38808020    -0.60800
H465        H  0.52147763  0.11378360  0.32312090     0.16200
O466        O  0.52452534  0.06763626  0.36042987    -0.60900
H467        H  0.54644416  0.06959249  0.36579612     0.43200
H468        H  0.98917123  0.19418182  0.39876815     0.43100
C469        C  0.00084608  0.39879800  0.39705692    -0.05900
C470        C  0.51654407  0.36912415  0.40370903    -0.33400
C471        C  0.51705682  0.34617086  0.38124015     0.35900
C472        C  0.99984068  0.35167698  0.35224641    -0.06300
C473        C  0.00177962  0.38264729  0.34359568    -0.33300
C474        C  0.00235111  0.40602445  0.36550631     0.35800
H475        H  0.52689607  0.36454109  0.42581654     0.16200
O476        O  0.53103236  0.31876712  0.38777588    -0.60800
H477        H  0.00304339  0.38902792  0.31962423     0.16200
O478        O  0.00525970  0.43575104  0.35565934    -0.60900
H479        H  0.98487531  0.44149558  0.34760654     0.43200
H480        H  0.55226130  0.32098649  0.38019351     0.43100
C481        C  0.99826645  0.35173678  0.14776422    -0.05900
C482        C  0.50764367  0.38165233  0.15518222    -0.33400
C483        C  0.50879590  0.40468333  0.13293012     0.35900
C484        C  0.99849564  0.39878605  0.10310322    -0.06300
C485        C  0.99997370  0.36779879  0.09438011    -0.33300
C486        C  0.99970991  0.34445137  0.11620038     0.35800
H487        H  0.51232297  0.38781652  0.17879514     0.16200
O488        O  0.51597786  0.43392645  0.14201259    -0.60800
H489        H  0.00145345  0.36137967  0.07041594     0.16200
O490        O  0.00144135  0.31466576  0.10619063    -0.60900
H491        H  0.98006273  0.30858757  0.10180065     0.43200
H492        H  0.53854544  0.43512436  0.14067234     0.43100
C493        C  0.00231147  0.10255351  0.10227716    -0.05900
C494        C  0.51302088  0.09736091  0.12951782    -0.33400
C495        C  0.51289670  0.11940895  0.15277347     0.35900
C496        C  0.00183911  0.14781623  0.14842392    -0.06300
C497        C  0.01436777  0.15413848  0.11949587    -0.33300
C498        C  0.01486787  0.13177654  0.09659026     0.35800
H499        H  0.52435700  0.07566450  0.13369367     0.16200
O500        O  0.52781141  0.11317255  0.17970400    -0.60800
H501        H  0.02422250  0.17640267  0.11468246     0.16200
O502        O  0.02801253  0.13870649  0.06889925    -0.60900
H503        H  0.04938764  0.13134227  0.07050639     0.43200
H504        H  0.51328897  0.10070076  0.19188031     0.43100
O505        O  0.99990023  0.04985425  0.58687835    -0.87000
O506        O  0.99900361  0.05011371  0.91404637    -0.87100
O507        O  0.04815434  0.08798686  0.50147931    -0.88800
O508        O  0.44811153  0.08501601  0.49936688    -0.87600
O509        O  0.41173098  0.04731831  0.49993711    -0.87100
O510        O  0.08570571  0.05143181  0.50075023    -0.88500
O511        O  0.99798292  0.08770775  0.95075567    -0.87000
O512        O  0.99968870  0.08692274  0.54965933    -0.86600
Zr513      Zr  0.99900228  0.06196711  0.49978919     2.84300
O514        O  0.46984116  0.03112962  0.96856645    -1.08600
O515        O  0.03002999  0.03144048  0.53081753    -1.09300
C516        C  0.00018719  0.07808229  0.57790295     1.06100
C517        C  0.99834762  0.07845947  0.92258054     1.06100
C518        C  0.07642204  0.07954620  0.50160947     1.09100
C519        C  0.42003697  0.07567100  0.49985210     1.06900
H520        H  0.04306807  0.04520771  0.95668618     0.32400
O521        O  0.03056956  0.03223866  0.96947827    -1.29500
H522        H  0.45552511  0.04332429  0.54323346     0.32100
O523        O  0.46840095  0.03069098  0.53042899    -1.31200
O524        O  0.00177352  0.45003885  0.91375684    -0.87000
O525        O  0.99916656  0.45001187  0.58614001    -0.88500
O526        O  0.08699116  0.00278315  0.95079657    -0.87000
O527        O  0.41422878  0.99986641  0.94973186    -0.87100
O528        O  0.41309510  0.99706187  0.54946171    -0.86800
O529        O  0.08649596  0.00271403  0.54939721    -0.86600
O530        O  0.04936233  0.41340628  0.49930053    -0.87000
O531        O  0.45116321  0.41204192  0.49978761    -0.86400
O532        O  0.08634951  0.45045778  0.49897406    -0.87500
O533        O  0.41365204  0.44867193  0.49947585    -0.86700
O534        O  0.05001830  0.00138112  0.91359459    -0.87100
O535        O  0.04976454  0.00167755  0.58671328    -0.86800
O536        O  0.45008409  0.99914294  0.58662321    -0.86400
O537        O  0.45125636  0.99916442  0.91268410    -0.86800
O538        O  0.00187133  0.41280252  0.95068804    -0.87100
O539        O  0.99907664  0.41275354  0.54904296    -0.88500
Zr540      Zr  0.00037159  0.00029004  0.93897643     2.83100
Zr541      Zr  0.99963040  0.00006628  0.56164247     2.83500
Zr542      Zr  0.06150769  0.00124101  0.49985476     2.84100
Zr543      Zr  0.43840709  0.99864963  0.49954379     2.83400
Zr544      Zr  0.99981295  0.43856194  0.49955275     2.84200
O545        O  0.46906271  0.46868119  0.53082771    -1.09000
O546        O  0.03187746  0.46862288  0.96947067    -1.08500
C547        C  0.00209197  0.42181357  0.92245164     1.06100
C548        C  0.99903707  0.42174710  0.57730235     1.08700
C549        C  0.07816038  0.00238732  0.92251474     1.06300
C550        C  0.42305338  0.99939464  0.92144466     1.06700
C551        C  0.42194379  0.99757279  0.57776340     1.06200
C552        C  0.07793300  0.00263565  0.57766887     1.05800
C553        C  0.07751083  0.42214005  0.49909130     1.06200
C554        C  0.42287599  0.42051433  0.49967027     1.05700
H555        H  0.04365853  0.45644826  0.54328880     0.32400
O556        O  0.03087174  0.46929164  0.53062001    -1.30100
H557        H  0.45730804  0.45558581  0.95596442     0.32400
O558        O  0.46995602  0.46841932  0.96879525    -1.31500
O559        O  0.00068268  0.20000579  0.66320105    -0.87000
O560        O  0.99883267  0.20066297  0.83689177    -0.87100
O561        O  0.04838499  0.16306874  0.74954362    -0.88800
O562        O  0.44834244  0.16453327  0.75031934    -0.87600
O563        O  0.41209678  0.20239161  0.75057439    -0.87100
O564        O  0.08551012  0.20003092  0.74997002    -0.88500
O565        O  0.99867039  0.16319929  0.80008073    -0.87000
O566        O  0.99974047  0.16321626  0.70064802    -0.86600
Zr567      Zr  0.99900908  0.18855935  0.75032209     2.84300
O568        O  0.46857620  0.21980289  0.78041915    -1.08600
O569        O  0.03062898  0.21924719  0.71997250    -1.09300
C570        C  0.00033116  0.17181507  0.67233922     1.06100
C571        C  0.99853985  0.17234925  0.82829288     1.06100
C572        C  0.07654668  0.17178858  0.74940247     1.09100
C573        C  0.42034207  0.17398718  0.75079931     1.06900
H574        H  0.04295300  0.20612957  0.79430060     0.32400
O575        O  0.03039319  0.21899868  0.78143246    -1.29500
H576        H  0.45582503  0.20689863  0.70540551     0.32100
O577        O  0.46869883  0.21949812  0.71824341    -1.31200
O578        O  0.00030202  0.29961285  0.83695163    -0.87000
O579        O  0.00010037  0.29932987  0.66258480    -0.88500
O580        O  0.08622915  0.24967454  0.80106944    -0.87000
O581        O  0.41320158  0.25063726  0.79918164    -0.87100
O582        O  0.41413644  0.25102217  0.69925985    -0.86800
O583        O  0.08757407  0.24901476  0.70193521    -0.86600
O584        O  0.04919834  0.33768010  0.75165064    -0.87000
O585        O  0.45132491  0.33820874  0.74888505    -0.86400
O586        O  0.08618894  0.30047933  0.75292236    -0.87500
O587        O  0.41432263  0.30117142  0.74833678    -0.86700
O588        O  0.04889478  0.25050339  0.83777087    -0.87100
O589        O  0.05107282  0.24797406  0.66435670    -0.86800
O590        O  0.45106757  0.25090102  0.66215035    -0.86400
O591        O  0.45013804  0.25015889  0.83631638    -0.86800
O592        O  0.99998589  0.33698079  0.80010964    -0.87100
O593        O  0.99900661  0.33680727  0.69947131    -0.88500
Zr594      Zr  0.99953401  0.25029983  0.81171357     2.83100
Zr595      Zr  0.00051049  0.24996562  0.68833800     2.83500
Zr596      Zr  0.06130824  0.25034775  0.75100477     2.84100
Zr597      Zr  0.43865071  0.25120555  0.74933209     2.83400
Zr598      Zr  0.99975111  0.31232002  0.74982424     2.84200
O599        O  0.46973296  0.28176053  0.71830123    -1.09000
O600        O  0.03034610  0.28158516  0.78131709    -1.08500
C601        C  0.00037864  0.32784678  0.82833487     1.06100
C602        C  0.99916589  0.32762468  0.67124006     1.08700
C603        C  0.07715822  0.25007585  0.82928275     1.06300
C604        C  0.42200156  0.25007304  0.82751067     1.06700
C605        C  0.42288130  0.25100768  0.67098747     1.06200
C606        C  0.07919484  0.24780119  0.67357594     1.05800
C607        C  0.07731797  0.32878388  0.75278080     1.06200
C608        C  0.42312837  0.32938552  0.74843084     1.05700
H609        H  0.04417131  0.29410901  0.70649838     0.32400
O610        O  0.03124769  0.28143505  0.71917173    -1.30100
H611        H  0.45655524  0.29488495  0.79346779     0.32400
O612        O  0.46921391  0.28196880  0.78072451    -1.31500
O613        O  0.33680516  0.50150792  0.70060496    -0.87000
O614        O  0.16361883  0.49900242  0.69962318    -0.87100
O615        O  0.25094878  0.45008388  0.66298904    -0.88800
O616        O  0.24804299  0.04997748  0.66256608    -0.87600
O617        O  0.24833831  0.08723560  0.69979503    -0.87100
O618        O  0.25094773  0.41282935  0.70009314    -0.88500
O619        O  0.20044545  0.50010994  0.66234314    -0.87000
O620        O  0.30016439  0.50020066  0.66302728    -0.86600
Zr621      Zr  0.25008441  0.50021160  0.68789870     2.84300
O622        O  0.21902974  0.03147485  0.71912708    -1.08600
O623        O  0.28107603  0.46962149  0.71903259    -1.09300
C624        C  0.32826644  0.50087742  0.67222668     1.06100
C625        C  0.17230877  0.49946209  0.67134198     1.06100
C626        C  0.25097691  0.42180052  0.67186400     1.09100
C627        C  0.24758604  0.07814912  0.67155039     1.06900
H628        H  0.20684761  0.45549959  0.70570364     0.32400
O629        O  0.21944574  0.46847363  0.71844700    -1.29500
H630        H  0.29351560  0.04496449  0.70604062     0.32100
O631        O  0.28081122  0.03218436  0.71882906    -1.31200
O632        O  0.16285454  0.49850414  0.79912622    -0.87000
O633        O  0.33587782  0.50275016  0.80040130    -0.88500
O634        O  0.20111606  0.41226021  0.75183989    -0.87000
O635        O  0.19994682  0.08769732  0.74902653    -0.87100
O636        O  0.29881807  0.08835026  0.75081512    -0.86800
O637        O  0.30109236  0.41421289  0.74839094    -0.86600
O638        O  0.24866440  0.45006888  0.83669240    -0.87000
O639        O  0.24965425  0.04980383  0.83725774    -0.86400
O640        O  0.25016452  0.41283791  0.79963560    -0.87500
O641        O  0.24951530  0.08727979  0.80039938    -0.86700
O642        O  0.16392307  0.44926402  0.75123744    -0.87100
O643        O  0.33746035  0.45191715  0.74917759    -0.86800
O644        O  0.33579600  0.05121139  0.75098472    -0.86400
O645        O  0.16305921  0.05053467  0.74896314    -0.86800
O646        O  0.19961543  0.49931264  0.83653225    -0.87100
O647        O  0.29883969  0.50235424  0.83743951    -0.88500
Zr648      Zr  0.18840810  0.49922141  0.74952398     2.83100
Zr649      Zr  0.31113678  0.50095365  0.75027383     2.83500
Zr650      Zr  0.25066665  0.43813723  0.74982837     2.84100
Zr651      Zr  0.24954210  0.06261394  0.75005556     2.83400
Zr652      Zr  0.24943626  0.49986046  0.81168619     2.84200
O653        O  0.28036947  0.03195653  0.78130910    -1.09000
O654        O  0.21924812  0.46854252  0.78060812    -1.08500
C655        C  0.17152601  0.49876679  0.82745111     1.06100
C656        C  0.32701295  0.50325025  0.82869070     1.08700
C657        C  0.17289787  0.42106631  0.75223869     1.06300
C658        C  0.17182820  0.07884208  0.74877226     1.06700
C659        C  0.32696603  0.07947065  0.75128526     1.06200
C660        C  0.32912831  0.42355501  0.74830497     1.05800
C661        C  0.24897634  0.42179846  0.82788762     1.06200
C662        C  0.24953581  0.07806931  0.82860376     1.05700
H663        H  0.29409055  0.45658323  0.79411851     0.32400
O664        O  0.28117920  0.46913373  0.78127576    -1.30100
H665        H  0.20574584  0.04456253  0.79382917     0.32400
O666        O  0.21855167  0.03182503  0.78105820    -1.31500
O667        O  0.20076030  0.16289608  0.00144796    -0.87000
O668        O  0.20041254  0.33695502  0.99781839    -0.87100
O669        O  0.16392649  0.24845440  0.55026710    -0.88800
O670        O  0.16337531  0.24954982  0.95109068    -0.87600
O671        O  0.20030468  0.24964258  0.91394806    -0.87100
O672        O  0.20101722  0.24746660  0.58727255    -0.88500
O673        O  0.16364426  0.29950588  0.99935879    -0.87000
O674        O  0.16374357  0.20011536  0.00096078    -0.86600
Zr675      Zr  0.18901679  0.24979230  0.00073243     2.84300
O676        O  0.21933290  0.28077425  0.96951755    -1.08600
O677        O  0.21905185  0.21894210  0.53069987    -1.09300
C678        C  0.17258032  0.17184564  0.00124780     1.06100
C679        C  0.17234749  0.32778205  0.99797965     1.06100
C680        C  0.17278918  0.24721799  0.57850883     1.09100
C681        C  0.17215872  0.24950671  0.92278657     1.06900
H682        H  0.20660231  0.29346987  0.54426945     0.32400
O683        O  0.21922729  0.28078022  0.53126898    -1.29500
H684        H  0.20681900  0.20560286  0.95716153     0.32100
O685        O  0.21955488  0.21846685  0.96986681    -1.30800
O686        O  0.30023899  0.33698922  0.00045804    -0.87000
O687        O  0.30082679  0.16309107  0.00046246    -0.88500
O688        O  0.25118559  0.29862922  0.58736295    -0.87000
O689        O  0.24921682  0.29912088  0.91334452    -0.87100
O690        O  0.25066270  0.19965805  0.91427058    -0.86800
O691        O  0.25005334  0.19958228  0.58651210    -0.86600
O692        O  0.33753085  0.24987178  0.54793512    -0.87000
O693        O  0.33652478  0.24944412  0.94968946    -0.86400
O694        O  0.30106138  0.24983809  0.58548696    -0.87500
O695        O  0.29918981  0.24901337  0.91294118    -0.86700
O696        O  0.25079325  0.33602455  0.55045062    -0.87100
O697        O  0.24799393  0.16230086  0.54941877    -0.86800
O698        O  0.25081582  0.16236244  0.95129060    -0.86400
O699        O  0.24958147  0.33681915  0.94997274    -0.86800
O700        O  0.33722158  0.29986416  0.00029611    -0.87100
O701        O  0.33747262  0.20059806  0.00049049    -0.88500
Zr702      Zr  0.25029947  0.31205161  0.00000536     2.83100
Zr703      Zr  0.25073071  0.18797570  0.00099522     2.83500
Zr704      Zr  0.25049064  0.24931815  0.56150350     2.84100
Zr705      Zr  0.25009305  0.24958919  0.93894385     2.83400
Zr706      Zr  0.31202459  0.25022366  0.00008625     2.84200
O707        O  0.28127957  0.21875673  0.96961785    -1.09000
O708        O  0.28110782  0.28030897  0.53056482    -1.08500
C709        C  0.32843001  0.32814340  0.00043971     1.06100
C710        C  0.32893452  0.17226144  0.00053421     1.08700
C711        C  0.25122055  0.32690310  0.57866817     1.06300
C712        C  0.24919704  0.32750089  0.92181989     1.06700
C713        C  0.25092423  0.17141793  0.92306491     1.06200
C714        C  0.24881735  0.17136929  0.57763995     1.05800
C715        C  0.32916421  0.25008600  0.57625748     1.06200
C716        C  0.32742270  0.24906690  0.92143752     1.05700
H717        H  0.29363729  0.20517890  0.54324116     0.32400
O718        O  0.28090886  0.21802908  0.53052034    -1.30100
H719        H  0.29383771  0.29378553  0.95602697     0.32400
O720        O  0.28122740  0.28111945  0.96901443    -1.31500
C721        C  0.24689804  0.10195908  0.64756111    -0.05900
C722        C  0.26237566  0.12962249  0.65263967    -0.33400
C723        C  0.26315108  0.15234714  0.63012380     0.35900
C724        C  0.24830516  0.14762894  0.60179132    -0.06300
C725        C  0.23259914  0.12000355  0.59674307    -0.33300
C726        C  0.23176211  0.09725679  0.61936494     0.35800
H727        H  0.27450949  0.13345403  0.67397352     0.16200
O728        O  0.27975459  0.17846820  0.63552644    -0.60800
H729        H  0.22057633  0.11617471  0.57535131     0.16200
O730        O  0.21503069  0.07114964  0.61420532    -0.60900
H731        H  0.22810013  0.05800590  0.60106755     0.43200
H732        H  0.26647169  0.19155519  0.64850505     0.43100
C733        C  0.25131915  0.35084388  0.60284160    -0.05900
C734        C  0.24032662  0.38030198  0.59589433    -0.33400
C735        C  0.23979616  0.40344276  0.61807855     0.35900
C736        C  0.25092081  0.39764786  0.64789765    -0.06300
C737        C  0.26180148  0.36814020  0.65493230    -0.33300
C738        C  0.26192450  0.34482971  0.63284158     0.35800
H739        H  0.23156402  0.38539453  0.57321760     0.16200
O740        O  0.22790991  0.43149886  0.61034121    -0.60800
H741        H  0.27056759  0.36309508  0.67761991     0.16200
O742        O  0.27350437  0.31663703  0.64060630    -0.60900
H743        H  0.25647033  0.30575292  0.65087366     0.43200
H744        H  0.20625139  0.43078677  0.61694518     0.43100
C745        C  0.24819164  0.39775071  0.85200821    -0.05900
C746        C  0.25590713  0.36737954  0.84443822    -0.33400
C747        C  0.25643120  0.34437415  0.86674500     0.35900
C748        C  0.24871233  0.35127393  0.89744965    -0.06300
C749        C  0.24061630  0.38155439  0.90494991    -0.33300
C750        C  0.24013825  0.40457739  0.88266228     0.35800
H751        H  0.26224083  0.36139629  0.82117126     0.16200
O752        O  0.26515865  0.31538472  0.85821662    -0.60800
H753        H  0.23440008  0.38753570  0.92824580     0.16200
O754        O  0.23173209  0.43364428  0.89128898    -0.60900
H755        H  0.20928648  0.43443698  0.88837177     0.43200
H756        H  0.28757874  0.31483679  0.86137183     0.43100
C757        C  0.24962069  0.10176046  0.85294277    -0.05900
C758        C  0.26110606  0.13106652  0.84646312    -0.33400
C759        C  0.26172540  0.15389083  0.86897468     0.35900
C760        C  0.25096574  0.14760631  0.89883689    -0.06300
C761        C  0.23959746  0.11824710  0.90537360    -0.33300
C762        C  0.23857080  0.09555784  0.88272120     0.35800
H763        H  0.27001584  0.13631437  0.82389269     0.16200
O764        O  0.27406573  0.18186991  0.86178660    -0.60800
H765        H  0.23077684  0.11297325  0.92797578     0.16200
O766        O  0.22596917  0.06768377  0.88981434    -0.60900
H767        H  0.20365724  0.07068164  0.88742344     0.43200
H768        H  0.25752608  0.19323037  0.85116977     0.43100
C769        C  0.39596590  0.15028730  0.75163952    -0.05900
C770        C  0.40378947  0.11973447  0.75819737    -0.33400
C771        C  0.38170294  0.09664376  0.75870670     0.35900
C772        C  0.35089789  0.10360496  0.75203281    -0.06300
C773        C  0.34294741  0.13424504  0.74597952    -0.33300
C774        C  0.36501157  0.15741313  0.74580749     0.35800
H775        H  0.42721899  0.11355106  0.76323281     0.16200
O776        O  0.39068899  0.06737278  0.76585398    -0.60800
H777        H  0.31951309  0.14039530  0.74091160     0.16200
O778        O  0.35593082  0.18681770  0.73945945    -0.60900
H779        H  0.35639420  0.18826469  0.71678329     0.43200
H780        H  0.38858230  0.06585190  0.78845367     0.43100
C781        C  0.39894608  0.35335797  0.74807664    -0.05900
C782        C  0.40660938  0.38397420  0.74159103    -0.33400
C783        C  0.38427775  0.40697454  0.74102806     0.35900
C784        C  0.35348232  0.39977406  0.74758448    -0.06300
C785        C  0.34584837  0.36914075  0.75381722    -0.33300
C786        C  0.36805831  0.34614784  0.75414936     0.35800
H787        H  0.43001240  0.39019610  0.73654424     0.16200
O788        O  0.39295265  0.43632047  0.73384148    -0.60800
H789        H  0.32248523  0.36282392  0.75892781     0.16200
O790        O  0.35911010  0.31672340  0.76066386    -0.60900
H791        H  0.35905017  0.31539113  0.78337388     0.43200
H792        H  0.39098368  0.43773988  0.71121960     0.43100
C793        C  0.10060442  0.14769552  0.74875788    -0.05900
C794        C  0.13132029  0.15616735  0.75269008    -0.33400
C795        C  0.15462675  0.13427563  0.75272846     0.35900
C796        C  0.14769030  0.10289916  0.74848680    -0.06300
C797        C  0.11697984  0.09442381  0.74433395    -0.33300
C798        C  0.09363708  0.11634499  0.74437286     0.35800
H799        H  0.13751253  0.17996847  0.75613738     0.16200
O800        O  0.18407846  0.14404948  0.75703631    -0.60800
H801        H  0.11083405  0.07060211  0.74095196     0.16200
O802        O  0.06412593  0.10662626  0.74032259    -0.60900
H803        H  0.06089209  0.10649603  0.71780566     0.43200
H804        H  0.18715361  0.14405131  0.77957832     0.43100
C805        C  0.10135635  0.35282692  0.75369416    -0.05900
C806        C  0.13064664  0.34564154  0.76486923    -0.33400
C807        C  0.15406628  0.36753370  0.76501138     0.35900
C808        C  0.14862015  0.39728932  0.75349036    -0.06300
C809        C  0.11915375  0.40461713  0.74297673    -0.33300
C810        C  0.09576890  0.38282885  0.74288890     0.35800
H811        H  0.13546517  0.32293796  0.77371220     0.16200
O812        O  0.18205738  0.35953470  0.77665804    -0.60800
H813        H  0.11424225  0.42726879  0.73404863     0.16200
O814        O  0.06776036  0.39108268  0.73145382    -0.60900
H815        H  0.06843345  0.38558813  0.70938061     0.43200
H816        H  0.18149209  0.36584363  0.79851748     0.43100
C817        C  0.39875970  0.25091864  0.64685708    -0.05900
C818        C  0.40709164  0.24983143  0.61571853    -0.33400
C819        C  0.38500463  0.24982694  0.59248800     0.35900
C820        C  0.35357298  0.25053810  0.60004606    -0.06300
C821        C  0.34531687  0.25173634  0.63112800    -0.33300
C822        C  0.36735699  0.25187641  0.65432094     0.35800
H823        H  0.43092393  0.24906312  0.60913221     0.16200
O824        O  0.39462323  0.24875115  0.56256100    -0.60800
H825        H  0.32150646  0.25260790  0.63777726     0.16200
O826        O  0.35773868  0.25373009  0.68420231    -0.60900
H827        H  0.34839673  0.23355486  0.68874452     0.43200
H828        H  0.39832845  0.27041305  0.55673548     0.43100
C829        C  0.10358272  0.24624632  0.64967857    -0.05900
C830        C  0.09531782  0.24428777  0.61857156    -0.33400
C831        C  0.11736149  0.24361878  0.59536965     0.35900
C832        C  0.14875022  0.24571155  0.60273671    -0.06300
C833        C  0.15711036  0.24658738  0.63388973    -0.33300
C834        C  0.13504162  0.24670153  0.65716307     0.35800
H835        H  0.07150445  0.24324489  0.61194687     0.16200
O836        O  0.10767566  0.24121249  0.56554285    -0.60800
H837        H  0.18095040  0.24746302  0.64045189     0.16200
O838        O  0.14471136  0.24690080  0.68709857    -0.60900
H839        H  0.14852994  0.26877020  0.69203275     0.43200
H840        H  0.10701552  0.21887516  0.56125712     0.43100
C841        C  0.10113795  0.24980490  0.85357952    -0.05900
C842        C  0.13132001  0.24192659  0.84582479    -0.33400
C843        C  0.15454344  0.24157004  0.86791308     0.35900
C844        C  0.14803565  0.24935071  0.89869405    -0.06300
C845        C  0.11784367  0.25707431  0.90650180    -0.33300
C846        C  0.09456018  0.25717544  0.88445630     0.35800
H847        H  0.13706272  0.23562746  0.82248603     0.16200
O848        O  0.18325546  0.23244774  0.85922803    -0.60800
H849        H  0.11212042  0.26329951  0.92986544     0.16200
O850        O  0.06565214  0.26537253  0.89335483    -0.60900
H851        H  0.05659823  0.24648408  0.90213803     0.43200
H852        H  0.19280941  0.25089722  0.85006138     0.43100
C853        C  0.39797564  0.24937190  0.85171423    -0.05900
C854        C  0.36716021  0.25324630  0.84353036    -0.33400
C855        C  0.34399961  0.25281859  0.86565376     0.35900
C856        C  0.35126942  0.24880909  0.89701971    -0.06300
C857        C  0.38205483  0.24461791  0.90514425    -0.33300
C858        C  0.40519118  0.24485409  0.88301801     0.35800
H859        H  0.36078506  0.25679251  0.81978479     0.16200
O860        O  0.31443250  0.25710395  0.85622015    -0.60800
H861        H  0.38844143  0.24103150  0.92887842     0.16200
O862        O  0.43468971  0.23990465  0.89238733    -0.60900
H863        H  0.44210236  0.26014252  0.89963323     0.43200
H864        H  0.30736124  0.23661337  0.84937029     0.43100
C865        C  0.39898587  0.39627713  0.49953212    -0.05900
C866        C  0.36901769  0.40381680  0.49072077    -0.33400
C867        C  0.34585328  0.38175021  0.49046160     0.35900
C868        C  0.35220547  0.35123673  0.49931938    -0.06300
C869        C  0.38364087  0.34314375  0.00144797    -0.33300
C870        C  0.40715341  0.36486745  0.00143660     0.35800
H871        H  0.36341367  0.42696114  0.48365679     0.16200
O872        O  0.31715155  0.39039103  0.48126056    -0.60800
H873        H  0.38984184  0.31911210  0.00237335     0.16200
O874        O  0.43678839  0.35469851  0.00232078    -0.60900
H875        H  0.44145626  0.35182811  0.02439808     0.43200
H876        H  0.31694779  0.38747551  0.45869557     0.43100
C877        C  0.35050512  0.14620277  0.50103175    -0.05900
C878        C  0.34234000  0.11531812  0.49662634    -0.33400
C879        C  0.36441179  0.09208182  0.49643122     0.35900
C880        C  0.39560724  0.09940074  0.50067574    -0.06300
C881        C  0.40598463  0.13223673  0.00834381    -0.33300
C882        C  0.38353922  0.15507284  0.00947028     0.35800
H883        H  0.31871810  0.10900850  0.49284155     0.16200
O884        O  0.35505509  0.06240619  0.49183969    -0.60800
H885        H  0.42893816  0.13797021  0.01561500     0.16200
O886        O  0.39157058  0.18371335  0.01972107    -0.60900
H887        H  0.38819056  0.18322750  0.04220750     0.43200
H888        H  0.35386576  0.05991137  0.46925813     0.43100
C889        C  0.10154048  0.39788488  0.49909727    -0.05900
C890        C  0.13246548  0.40629043  0.49708314    -0.33400
C891        C  0.15567242  0.38420304  0.49697595     0.35900
C892        C  0.14839160  0.35268766  0.49915646    -0.06300
C893        C  0.12051117  0.34629565  0.01259604    -0.33300
C894        C  0.09777352  0.36883310  0.01358575     0.35800
H895        H  0.13891453  0.43020703  0.49545714     0.16200
O896        O  0.18538012  0.39393318  0.49504627    -0.60800
H897        H  0.11678607  0.32491982  0.02467941     0.16200
O898        O  0.07155682  0.36303587  0.02977422    -0.60900
H899        H  0.07581336  0.37023949  0.05093500     0.43200
H900        H  0.18932508  0.39659547  0.47281113     0.43100
C901        C  0.10021630  0.10377183  0.50284818    -0.05900
C902        C  0.13041650  0.09567716  0.51025649    -0.33400
C903        C  0.15372661  0.11755779  0.51057371     0.35900
C904        C  0.14719283  0.14844179  0.50335499    -0.06300
C905        C  0.11923379  0.15520366  0.98932439    -0.33300
C906        C  0.09572068  0.13343712  0.98907459     0.35800
H907        H  0.13616754  0.07218282  0.51590652     0.16200
O908        O  0.18260135  0.10851042  0.51879604    -0.60800
H909        H  0.11469029  0.17775494  0.97995829     0.16200
O910        O  0.06816252  0.14114480  0.97624359    -0.60900
H911        H  0.05688935  0.15214973  0.99263139     0.43200
H912        H  0.19142379  0.09903390  0.50010098     0.43100
C913        C  0.39879299  0.99904567  0.89740381    -0.05900
C914        C  0.36774662  0.50952856  0.90603368    -0.33400
C915        C  0.34450092  0.51042075  0.88391645     0.35900
C916        C  0.35130449  0.99950516  0.85281532    -0.06300
C917        C  0.38198269  0.00377253  0.84426631    -0.33300
C918        C  0.40549264  0.00353066  0.86602943     0.35800
H919        H  0.36176270  0.51389298  0.92974036     0.16200
O920        O  0.31532940  0.51710910  0.89320893    -0.60800
H921        H  0.38798864  0.00764436  0.82048678     0.16200
O922        O  0.43480289  0.00870893  0.85627699    -0.60900
H923        H  0.44234286  0.98849366  0.84907209     0.43200
H924        H  0.31360961  0.53974216  0.89174069     0.43100
C925        C  0.14751536  0.00063958  0.85207384    -0.05900
C926        C  0.15464901  0.50966033  0.88107177    -0.33400
C927        C  0.13251967  0.51077856  0.90415952     0.35900
C928        C  0.10207699  0.00262119  0.89836705    -0.06300
C929        C  0.09599100  0.98911559  0.86972122    -0.33300
C930        C  0.11836774  0.98788912  0.84681725     0.35800
H931        H  0.17746560  0.51759776  0.88634834     0.16200
O932        O  0.14054198  0.52221594  0.93235996    -0.60800
H933        H  0.07393649  0.97883141  0.86520194     0.16200
O934        O  0.11160851  0.97358048  0.81961378    -0.60900
H935        H  0.11789733  0.95191904  0.82250796     0.43200
H936        H  0.13606530  0.54448875  0.93128309     0.43100
C937        C  0.10236269  0.00347474  0.60147288    -0.05900
C938        C  0.09431370  0.00556224  0.63258336    -0.33400
C939        C  0.11654967  0.00587148  0.65560543     0.35900
C940        C  0.14785837  0.00348105  0.64796605    -0.06300
C941        C  0.15513360  0.50898399  0.61746771    -0.33300
C942        C  0.13278614  0.50959578  0.59450455     0.35800
H943        H  0.07055812  0.00704808  0.63931660     0.16200
O944        O  0.10714398  0.00824433  0.68551560    -0.60800
H945        H  0.17801828  0.51648145  0.61179518     0.16200
O946        O  0.14063213  0.52025135  0.56598405    -0.60900
H947        H  0.14989204  0.50244397  0.55529031     0.43200
H948        H  0.10610139  0.03058609  0.68970932     0.43100
C949        C  0.35281917  0.99788835  0.64872054    -0.05900
C950        C  0.34622637  0.48789888  0.61934227    -0.33400
C951        C  0.36845407  0.48720042  0.59625370     0.35900
C952        C  0.39808935  0.99678017  0.60206903    -0.06300
C953        C  0.40453767  0.00902785  0.63120036    -0.33300
C954        C  0.38244552  0.00938481  0.65442696     0.35800
H955        H  0.32402520  0.47802999  0.61459546     0.16200
O956        O  0.36155051  0.47335281  0.56884436    -0.60800
H957        H  0.42675455  0.01884983  0.63598255     0.16200
O958        O  0.38978586  0.02226631  0.68219147    -0.60900
H959        H  0.40069693  0.00593841  0.69362906     0.43200
H960        H  0.35021330  0.48902475  0.55692815     0.43100
C961        C  0.99823198  0.10221507  0.89819610    -0.05900
C962        C  0.99131635  0.13276261  0.90577785    -0.33400
C963        C  0.99146404  0.15578466  0.88349576     0.35900
C964        C  0.99824939  0.14853947  0.85262827    -0.06300
C965        C  0.49556770  0.11780153  0.84364737    -0.33300
C966        C  0.49631997  0.09454151  0.86561342     0.35800
H967        H  0.98564772  0.13900142  0.92915165     0.16200
O968        O  0.98408180  0.18511463  0.89217556    -0.60800
H969        H  0.49586552  0.11126692  0.81967099     0.16200
O970        O  0.49664643  0.06467339  0.85571654    -0.60900
H971        H  0.51841654  0.05994816  0.85161277     0.43200
H972        H  0.00340124  0.19414573  0.89988946     0.43100
C973        C  0.00231991  0.39794938  0.89818904    -0.05900
C974        C  0.49382393  0.36839874  0.90473382    -0.33400
C975        C  0.49346642  0.34531058  0.88254055     0.35900
C976        C  0.00107847  0.35157412  0.85271341    -0.06300
C977        C  0.00571822  0.38237328  0.84464132    -0.33300
C978        C  0.00641784  0.40539189  0.86690139     0.35800
H979        H  0.48656169  0.36278429  0.92780736     0.16200
O980        O  0.48341287  0.31669016  0.89077106    -0.60800
H981        H  0.00902812  0.38883817  0.82089087     0.16200
O982        O  0.01184734  0.43495713  0.85768130    -0.60900
H983        H  0.99174673  0.44293942  0.85088695     0.43200
H984        H  0.50136802  0.30642529  0.90009553     0.43100
C985        C  0.99857866  0.35147664  0.64697838    -0.05900
C986        C  0.50358622  0.38326166  0.65611868    -0.33400
C987        C  0.50357995  0.40658607  0.63416312     0.35900
C988        C  0.99893044  0.39782643  0.60148823    -0.06300
C989        C  0.99015768  0.36770477  0.59415197    -0.33300
C990        C  0.98983182  0.34470288  0.61649573     0.35800
H991        H  0.50381421  0.38974713  0.68011136     0.16200
O992        O  0.50389653  0.43645937  0.64407755    -0.60800
H993        H  0.98320054  0.36189726  0.57101063     0.16200
O994        O  0.98073301  0.31576711  0.60816943    -0.60900
H995        H  0.95838393  0.31533262  0.61177640     0.43200
H996        H  0.52579966  0.44172390  0.64643925     0.43100
C997        C  0.00089574  0.10213492  0.60194989    -0.05900
C998        C  0.48945440  0.09641256  0.62965610    -0.33400
C999        C  0.48880587  0.11863537  0.65275419     0.35900
C1000       C  0.00060854  0.14750628  0.64847772    -0.06300
C1001       C  0.00990595  0.15471597  0.61849313    -0.33300
C1002       C  0.01036213  0.13238951  0.59546229     0.35800
H1003       H  0.48008659  0.07394954  0.63451898     0.16200
O1004       O  0.47646245  0.11108086  0.68064593    -0.60800
H1005       H  0.01727243  0.17773549  0.61283649     0.16200
O1006       O  0.02041131  0.14047240  0.56679574    -0.60900
H1007       H  0.04258273  0.13580783  0.56678884     0.43200
H1008       H  0.45447508  0.11629361  0.67897115     0.43100
O1009       O  0.00162136  0.55021530  0.08715004    -0.87000
O1010       O  0.99820317  0.55002514  0.41312916    -0.87100
O1011       O  0.04900801  0.58747535  0.00149535    -0.88800
O1012       O  0.44937426  0.58636426  0.00160626    -0.87600
O1013       O  0.41303007  0.54857135  0.00125419    -0.87100
O1014       O  0.08641414  0.55067156  0.00179130    -0.88500
O1015       O  0.99841178  0.58722209  0.45026335    -0.87000
O1016       O  0.00039041  0.58704802  0.04971495    -0.86600
Zr1017     Zr  0.99990289  0.56143954  0.00023284     2.84300
O1018       O  0.46820784  0.53025856  0.46830700    -1.08600
O1019       O  0.03110171  0.53095035  0.03122079    -1.09300
C1020       C  0.00126454  0.57838361  0.07799031     1.06100
C1021       C  0.99831644  0.57823058  0.42202103     1.06100
C1022       C  0.07723379  0.57892272  0.00211735     1.09100
C1023       C  0.42131420  0.57701388  0.00166803     1.06900
H1024       H  0.04285423  0.54467989  0.45601724     0.32400
O1025       O  0.03028609  0.53174256  0.46877568    -1.29500
H1026       H  0.45677781  0.54317944  0.04438471     0.32100
O1027       O  0.46947952  0.53062826  0.03132438    -1.31200
O1028       O  0.00082093  0.95098336  0.41279928    -0.87000
O1029       O  0.00071426  0.95060311  0.08787396    -0.88500
O1030       O  0.08613187  0.50107329  0.44959272    -0.87000
O1031       O  0.41330277  0.49830077  0.44920820    -0.87100
O1032       O  0.41464448  0.49702551  0.05027369    -0.86800
O1033       O  0.08691045  0.49948275  0.05007071    -0.86600
O1034       O  0.05089477  0.91464231  0.00017833    -0.87000
O1035       O  0.45163604  0.91299342  0.99928994    -0.86400
O1036       O  0.08744808  0.95216328  0.99927035    -0.87500
O1037       O  0.41435903  0.94990287  0.99941439    -0.86700
O1038       O  0.04912967  0.50105467  0.41242223    -0.87100
O1039       O  0.05019755  0.49968383  0.08742786    -0.86800
O1040       O  0.45169841  0.49833282  0.08735237    -0.86400
O1041       O  0.45053719  0.49843767  0.41226510    -0.86800
O1042       O  0.00086587  0.91372236  0.44977434    -0.87100
O1043       O  0.00029353  0.91337755  0.05068647    -0.88500
Zr1044     Zr  0.99942397  0.50049545  0.43816300     2.83100
Zr1045     Zr  0.00033606  0.50020959  0.06225861     2.83500
Zr1046     Zr  0.06219339  0.50004156  0.00035174     2.84100
Zr1047     Zr  0.43917875  0.49915344  0.00018819     2.83400
Zr1048     Zr  0.00075276  0.93874890  0.00098718     2.84200
O1049       O  0.47011900  0.96940807  0.03087476    -1.09000
O1050       O  0.03165499  0.96971600  0.46869491    -1.08500
C1051       C  0.00057914  0.92275131  0.42155702     1.06100
C1052       C  0.00049502  0.92232754  0.07894507     1.08700
C1053       C  0.07734023  0.50124859  0.42131839     1.06300
C1054       C  0.42236403  0.49824443  0.42099263     1.06700
C1055       C  0.42351556  0.49704990  0.07853533     1.06200
C1056       C  0.07832427  0.49937777  0.07835129     1.05800
C1057       C  0.07891818  0.92379891  0.99922965     1.06200
C1058       C  0.42342386  0.92165302  0.99921678     1.05700
H1059       H  0.04469770  0.95725726  0.04453447     0.32400
O1060       O  0.03169540  0.96986435  0.03184282    -1.30100
H1061       H  0.45688746  0.95511172  0.45567956     0.32400
O1062       O  0.46945593  0.96806125  0.46846955    -1.31500
O1063       O  0.00147442  0.69968254  0.16376366    -0.87000
O1064       O  0.00054602  0.70093978  0.33757668    -0.87100
O1065       O  0.05069379  0.66369336  0.25027941    -0.88800
O1066       O  0.45052207  0.66341315  0.25034591    -0.87600
O1067       O  0.41387067  0.70082330  0.25007072    -0.87100
O1068       O  0.08756168  0.70100525  0.24997226    -0.88500
O1069       O  0.00098467  0.66341653  0.30077369    -0.87000
O1070       O  0.00184907  0.66261641  0.20104479    -0.86600
Zr1071     Zr  0.00077683  0.68818149  0.25081725     2.84300
O1072       O  0.46921472  0.71943354  0.28082748    -1.08600
O1073       O  0.03145212  0.71928342  0.21987647    -1.09300
C1074       C  0.00209656  0.67147661  0.17276496     1.06100
C1075       C  0.00060802  0.67264253  0.32894159     1.06100
C1076       C  0.07878257  0.67265595  0.24990916     1.09100
C1077       C  0.42241163  0.67250613  0.25036470     1.06900
H1078       H  0.04450957  0.70697986  0.29470984     0.32400
O1079       O  0.03159467  0.71943596  0.28178163    -1.29500
H1080       H  0.45706984  0.70603166  0.20569716     0.32100
O1081       O  0.46969167  0.71891586  0.21850142    -1.31200
O1082       O  0.99895300  0.79991524  0.33705462    -0.87000
O1083       O  0.99902790  0.79914988  0.16303945    -0.88500
O1084       O  0.08656187  0.75336512  0.30085188    -0.87000
O1085       O  0.41321540  0.74990000  0.29872331    -0.87100
O1086       O  0.41431868  0.75019063  0.19939930    -0.86800
O1087       O  0.08750996  0.75115717  0.20114225    -0.86600
O1088       O  0.04790429  0.83826747  0.25047572    -0.87000
O1089       O  0.45063099  0.83755981  0.24780662    -0.86400
O1090       O  0.08542646  0.80168818  0.25039029    -0.87500
O1091       O  0.41410593  0.80008833  0.24749663    -0.86700
O1092       O  0.04918613  0.75299367  0.33756711    -0.87100
O1093       O  0.05058357  0.75041069  0.16390199    -0.86800
O1094       O  0.45115504  0.75002931  0.16219393    -0.86400
O1095       O  0.44995979  0.74893839  0.33603076    -0.86800
O1096       O  0.99899607  0.83707307  0.30002642    -0.87100
O1097       O  0.99905562  0.83650071  0.20010848    -0.88500
Zr1098     Zr  0.99997191  0.75035347  0.31206398     2.83100
Zr1099     Zr  0.00028214  0.74960190  0.18867145     2.83500
Zr1100     Zr  0.06186348  0.75089976  0.25070395     2.84100
Zr1101     Zr  0.43912618  0.75036138  0.24928949     2.83400
Zr1102     Zr  0.99909599  0.81180086  0.25018844     2.84200
O1103       O  0.46996516  0.78103641  0.21833728    -1.09000
O1104       O  0.03050899  0.78165290  0.28134789    -1.08500
C1105       C  0.99899094  0.82811760  0.32827630     1.06100
C1106       C  0.99887622  0.82743156  0.17187839     1.08700
C1107       C  0.07736868  0.75387429  0.32903539     1.06300
C1108       C  0.42184024  0.74890234  0.32705947     1.06700
C1109       C  0.42293667  0.75026700  0.17109680     1.06200
C1110       C  0.07880554  0.75104760  0.17282997     1.05800
C1111       C  0.07616786  0.82988248  0.25033536     1.06200
C1112       C  0.42252513  0.82842899  0.24712975     1.05700
H1113       H  0.04316463  0.79419051  0.20661373     0.32400
O1114       O  0.03065452  0.78126738  0.21943819    -1.30100
H1115       H  0.45627047  0.79442974  0.29315332     0.32400
O1116       O  0.46922877  0.78165143  0.28057990    -1.31500
O1117       O  0.33729089  0.00057842  0.20096416    -0.87000
O1118       O  0.16400850  0.00325620  0.19914345    -0.87100
O1119       O  0.25029650  0.95205726  0.16126955    -0.88800
O1120       O  0.25087758  0.55015871  0.16244377    -0.87600
O1121       O  0.25108744  0.58736287  0.19958959    -0.87100
O1122       O  0.24969070  0.91433456  0.19786607    -0.88500
O1123       O  0.20108640  0.00351116  0.16208180    -0.87000
O1124       O  0.30088678  0.00096822  0.16328277    -0.86600
Zr1125     Zr  0.25056531  0.00115291  0.18763757     2.84300
O1126       O  0.21987896  0.53146870  0.21861009    -1.08600
O1127       O  0.28081129  0.96941606  0.21826550    -1.09300
C1128       C  0.32897283  0.00087507  0.17256034     1.06100
C1129       C  0.17293579  0.00409158  0.17098906     1.06100
C1130       C  0.25005522  0.92370971  0.16972719     1.09100
C1131       C  0.25104644  0.57842661  0.17127276     1.06900
H1132       H  0.20613018  0.95764011  0.20451268     0.32400
O1133       O  0.21895594  0.97000461  0.21762493    -1.29500
H1134       H  0.29481183  0.54411585  0.20607829     0.32100
O1135       O  0.28183158  0.53148540  0.21873343    -1.31200
O1136       O  0.16254706  0.00036363  0.29832912    -0.87000
O1137       O  0.33546104  0.00035446  0.30033989    -0.88500
O1138       O  0.19907569  0.91451299  0.24832724    -0.87000
O1139       O  0.20114112  0.58762219  0.24782769    -0.87100
O1140       O  0.30057070  0.58718513  0.25096548    -0.86800
O1141       O  0.29937696  0.91299506  0.24720731    -0.86600
O1142       O  0.24947613  0.94951254  0.33523008    -0.87000
O1143       O  0.24945525  0.54958314  0.33711672    -0.86400
O1144       O  0.24944172  0.91232616  0.29805842    -0.87500
O1145       O  0.24975648  0.58681189  0.30003822    -0.86700
O1146       O  0.16226906  0.95181515  0.24871538    -0.87100
O1147       O  0.33597929  0.95038591  0.24868141    -0.86800
O1148       O  0.33714369  0.54967112  0.25090040    -0.86400
O1149       O  0.16404765  0.55057281  0.24859400    -0.86800
O1150       O  0.19927759  0.99849706  0.33563281    -0.87100
O1151       O  0.29831517  0.00046412  0.33727747    -0.88500
Zr1152     Zr  0.18841420  0.00109545  0.24894131     2.83100
Zr1153     Zr  0.31107357  0.99999219  0.25011505     2.83500
Zr1154     Zr  0.24943646  0.93836486  0.24843769     2.84100
Zr1155     Zr  0.25072135  0.56226889  0.24969644     2.83400
Zr1156     Zr  0.24917624  0.99953885  0.31102618     2.84200
O1157       O  0.28107885  0.53127223  0.28114962    -1.09000
O1158       O  0.21842551  0.96909184  0.27959693    -1.08500
C1159       C  0.17116797  0.99909606  0.32662576     1.06100
C1160       C  0.32650790  0.00066310  0.32858112     1.08700
C1161       C  0.17094540  0.92347648  0.24866742     1.06300
C1162       C  0.17298145  0.57881889  0.24777899     1.06700
C1163       C  0.32866729  0.57802669  0.25118775     1.06200
C1164       C  0.32752915  0.92210402  0.24750579     1.05800
C1165       C  0.24959053  0.92128814  0.32637286     1.06200
C1166       C  0.24913711  0.57781186  0.32830432     1.05700
H1167       H  0.29292503  0.95560869  0.29302056     0.32400
O1168       O  0.28023373  0.96852555  0.28033015    -1.30100
H1169       H  0.20653061  0.54447964  0.29339574     0.32400
O1170       O  0.21943665  0.53171635  0.28075278    -1.31500
O1171       O  0.19951491  0.66423172  0.50224134    -0.87000
O1172       O  0.20282570  0.83925443  0.49822696    -0.87100
O1173       O  0.16326841  0.75237068  0.04920831    -0.88800
O1174       O  0.16289170  0.75363184  0.45083600    -0.87600
O1175       O  0.19962518  0.75332327  0.41346646    -0.87100
O1176       O  0.20035354  0.75173246  0.08628474    -0.88500
O1177       O  0.16544887  0.80260813  0.49979486    -0.87000
O1178       O  0.16283125  0.70169312  0.50182004    -0.86600
Zr1179     Zr  0.18858738  0.75155447  0.50027226     2.84300
O1180       O  0.21936328  0.78199757  0.46885491    -1.08600
O1181       O  0.21873627  0.72043518  0.03039915    -1.09300
C1182       C  0.17143456  0.67326878  0.50258753     1.06100
C1183       C  0.17463243  0.83080190  0.49874877     1.06100
C1184       C  0.17211201  0.75199958  0.07747052     1.09100
C1185       C  0.17159193  0.75435657  0.42252958     1.06900
H1186       H  0.20718068  0.79575699  0.04260678     0.32400
O1187       O  0.21959857  0.78258826  0.02988546    -1.29500
H1188       H  0.20523641  0.70714997  0.45665933     0.32100
O1189       O  0.21841392  0.71970332  0.46922330    -1.30800
O1190       O  0.30106512  0.83643794  0.50072966    -0.87000
O1191       O  0.29867976  0.66239073  0.49954726    -0.88500
O1192       O  0.25179684  0.80135893  0.08522415    -0.87000
O1193       O  0.25151805  0.79947911  0.41209040    -0.87100
O1194       O  0.24788812  0.70053740  0.41323483    -0.86800
O1195       O  0.24999576  0.70160349  0.08632438    -0.86600
O1196       O  0.33675690  0.75082253  0.04825665    -0.87000
O1197       O  0.33552136  0.74749787  0.44814567    -0.86400
O1198       O  0.30025779  0.75127263  0.08581288    -0.87500
O1199       O  0.29816152  0.74808777  0.41147000    -0.86700
O1200       O  0.25227504  0.83821032  0.04778308    -0.87100
O1201       O  0.24909699  0.66404562  0.04956128    -0.86800
O1202       O  0.24814820  0.66329527  0.45025361    -0.86400
O1203       O  0.25243352  0.83687766  0.44903310    -0.86800
O1204       O  0.33759471  0.79889578  0.49858876    -0.87100
O1205       O  0.33598921  0.69924006  0.49888854    -0.88500
Zr1206     Zr  0.25122877  0.81232731  0.49934376     2.83100
Zr1207     Zr  0.24938950  0.68862492  0.50023969     2.83500
Zr1208     Zr  0.25020367  0.75129241  0.06081835     2.84100
Zr1209     Zr  0.24940762  0.75026852  0.43803957     2.83400
Zr1210     Zr  0.31160748  0.74946479  0.49861567     2.84200
O1211       O  0.28017990  0.71861603  0.46831694    -1.09000
O1212       O  0.28150266  0.78157743  0.02960911    -1.08500
C1213       C  0.32904394  0.82725747  0.49974772     1.06100
C1214       C  0.32691149  0.67106320  0.49931519     1.08700
C1215       C  0.25244038  0.82949549  0.07609390     1.06300
C1216       C  0.25247458  0.82775262  0.42078559     1.06700
C1217       C  0.24780171  0.67230323  0.42198473     1.06200
C1218       C  0.24956003  0.67324104  0.07774003     1.05800
C1219       C  0.32837622  0.75111851  0.07663691     1.06200
C1220       C  0.32638617  0.74727932  0.41993516     1.05700
H1221       H  0.29315530  0.70696032  0.04295288     0.32400
O1222       O  0.28051919  0.71969141  0.03003470    -1.30100
H1223       H  0.29429807  0.79343717  0.45498799     0.32400
O1224       O  0.28136192  0.78106716  0.46793556    -1.31500
C1225       C  0.25105614  0.60250521  0.14712972    -0.05900
C1226       C  0.24387089  0.63293259  0.15502541    -0.33400
C1227       C  0.24320469  0.65610862  0.13288305     0.35900
C1228       C  0.24994126  0.64926766  0.10194148    -0.06300
C1229       C  0.25725732  0.61886623  0.09404953    -0.33300
C1230       C  0.25801970  0.59570660  0.11619393     0.35800
H1231       H  0.23833775  0.63889134  0.17850265     0.16200
O1232       O  0.23575270  0.68531271  0.14190531    -0.60800
H1233       H  0.26280739  0.61291038  0.07057162     0.16200
O1234       O  0.26576096  0.56657190  0.10716713    -0.60900
H1235       H  0.28827119  0.56545289  0.10939355     0.43200
H1236       H  0.21325643  0.68665691  0.13967877     0.43100
C1237       C  0.25274636  0.85368421  0.09994444    -0.05900
C1238       C  0.24221230  0.88326161  0.09274209    -0.33400
C1239       C  0.24093756  0.90623506  0.11510255     0.35900
C1240       C  0.25063389  0.89998855  0.14537580    -0.06300
C1241       C  0.26150405  0.87052498  0.15242513    -0.33300
C1242       C  0.26264599  0.84753465  0.13012584     0.35800
H1243       H  0.23428603  0.88852723  0.06979311     0.16200
O1244       O  0.22982323  0.93453009  0.10706564    -0.60800
H1245       H  0.26959034  0.86526418  0.17531582     0.16200
O1246       O  0.27455341  0.81948518  0.13790366    -0.60900
H1247       H  0.25771302  0.80845640  0.14833092     0.43200
H1248       H  0.20771665  0.93381240  0.11194150     0.43100
C1249       C  0.25051088  0.89751216  0.35070068    -0.05900
C1250       C  0.25987550  0.86755260  0.34343169    -0.33400
C1251       C  0.26150946  0.84483202  0.36600755     0.35900
C1252       C  0.25312348  0.85163013  0.39657599    -0.06300
C1253       C  0.24441169  0.88173194  0.40394402    -0.33300
C1254       C  0.24292191  0.90446474  0.38146539     0.35800
H1255       H  0.26641778  0.86170610  0.32018654     0.16200
O1256       O  0.27155062  0.81616283  0.35782872    -0.60800
H1257       H  0.23800212  0.88767896  0.42720018     0.16200
O1258       O  0.23371891  0.93332700  0.38998141    -0.60900
H1259       H  0.21125126  0.93346991  0.38715530     0.43200
H1260       H  0.29384663  0.81634374  0.36182919     0.43100
C1261       C  0.24787948  0.60181647  0.35240362    -0.05900
C1262       C  0.25540245  0.63215270  0.34483917    -0.33400
C1263       C  0.25486955  0.65534823  0.36693029     0.35900
C1264       C  0.24729166  0.64844934  0.39767485    -0.06300
C1265       C  0.23922018  0.61819750  0.40515536    -0.33300
C1266       C  0.23908653  0.59511439  0.38285932     0.35800
H1267       H  0.26206385  0.63805841  0.32165906     0.16200
O1268       O  0.26283009  0.68447253  0.35823167    -0.60800
H1269       H  0.23264084  0.61234312  0.42837336     0.16200
O1270       O  0.23008836  0.56618197  0.39119880    -0.60900
H1271       H  0.20766962  0.56587758  0.38803124     0.43200
H1272       H  0.24401629  0.69343936  0.34926489     0.43100
C1273       C  0.39817507  0.64859183  0.25075024    -0.05900
C1274       C  0.40633168  0.61760379  0.25417963    -0.33400
C1275       C  0.38422119  0.59448300  0.25455698     0.35900
C1276       C  0.35293138  0.60194759  0.25148069    -0.06300
C1277       C  0.34477879  0.63295850  0.24823831    -0.33300
C1278       C  0.36690030  0.65604462  0.24762824     0.35800
H1279       H  0.43006591  0.61103983  0.25661612     0.16200
O1280       O  0.39372521  0.56466711  0.25760518    -0.60800
H1281       H  0.32106069  0.63954148  0.24570226     0.16200
O1282       O  0.35746322  0.68577964  0.24376130    -0.60900
H1283       H  0.35588333  0.68855068  0.22124911     0.43200
H1284       H  0.39464270  0.56098538  0.28002905     0.43100
C1285       C  0.39803928  0.85222957  0.24624296    -0.05900
C1286       C  0.40582599  0.88337993  0.24879576    -0.33400
C1287       C  0.38341100  0.90626789  0.24894848     0.35900
C1288       C  0.35211197  0.89841831  0.24656223    -0.06300
C1289       C  0.34436742  0.86732186  0.24343036    -0.33300
C1290       C  0.36678789  0.84442553  0.24338003     0.35800
H1291       H  0.42948719  0.89023154  0.25106324     0.16200
O1292       O  0.39257051  0.93615456  0.25235719    -0.60800
H1293       H  0.32070127  0.86048659  0.24117620     0.16200
O1294       O  0.35767194  0.81452351  0.24004956    -0.60900
H1295       H  0.35282654  0.80741952  0.26109619     0.43200
H1296       H  0.39685812  0.94347247  0.23126921     0.43100
C1297       C  0.10271690  0.64846256  0.24920703    -0.05900
C1298       C  0.13186956  0.65524211  0.23759526    -0.33400
C1299       C  0.15482820  0.63284973  0.23658043     0.35900
C1300       C  0.14897652  0.60291620  0.24741909    -0.06300
C1301       C  0.11974436  0.59608374  0.25873661    -0.33300
C1302       C  0.09677140  0.61837754  0.25961093     0.35800
H1303       H  0.13687557  0.67794704  0.22888662     0.16200
O1304       O  0.18252536  0.64024508  0.22391712    -0.60800
H1305       H  0.11467881  0.57340501  0.26748333     0.16200
O1306       O  0.06896169  0.61071492  0.27186255    -0.60900
H1307       H  0.05797502  0.59977616  0.25523143     0.43200
H1308       H  0.19375250  0.65133297  0.24027685     0.43100
C1309       C  0.09996855  0.85428979  0.24993323    -0.05900
C1310       C  0.13088625  0.84593198  0.25213759    -0.33400
C1311       C  0.15403312  0.86795080  0.25187501     0.35900
C1312       C  0.14677686  0.89942249  0.24909240    -0.06300
C1313       C  0.11583106  0.90786504  0.24693037    -0.33300
C1314       C  0.09262237  0.88577581  0.24720913     0.35800
H1315       H  0.13741269  0.82206488  0.25426297     0.16200
O1316       O  0.18370316  0.85815624  0.25423399    -0.60800
H1317       H  0.10940339  0.93176571  0.24485692     0.16200
O1318       O  0.06289634  0.89545456  0.24500081    -0.60900
H1319       H  0.05865377  0.89661889  0.22268481     0.43200
H1320       H  0.18803842  0.85760324  0.27656050     0.43100
C1321       C  0.39854459  0.75060518  0.14708989    -0.05900
C1322       C  0.40652958  0.74892170  0.11589990    -0.33400
C1323       C  0.38423940  0.74931376  0.09281810     0.35900
C1324       C  0.35287822  0.75112747  0.10049748    -0.06300
C1325       C  0.34491552  0.75295000  0.13166557    -0.33300
C1326       C  0.36718980  0.75269976  0.15473126     0.35800
H1327       H  0.43027322  0.74731446  0.10915070     0.16200
O1328       O  0.39359342  0.74745009  0.06285459    -0.60800
H1329       H  0.32118475  0.75466941  0.13844065     0.16200
O1330       O  0.35785029  0.75527254  0.18464881    -0.60900
H1331       H  0.35038678  0.73459780  0.19033928     0.43200
H1332       H  0.39840528  0.76882577  0.05680179     0.43100
C1333       C  0.10295920  0.75167364  0.14867055    -0.05900
C1334       C  0.09523311  0.74474018  0.11814152    -0.33400
C1335       C  0.11728871  0.74460680  0.09489690     0.35900
C1336       C  0.14802604  0.75190924  0.10165071    -0.06300
C1337       C  0.15576641  0.75899115  0.13214572    -0.33300
C1338       C  0.13371461  0.75902847  0.15543020     0.35800
H1339       H  0.07195668  0.73885849  0.11215006     0.16200
O1340       O  0.10841136  0.73685622  0.06572962    -0.60800
H1341       H  0.17907391  0.76480602  0.13809279     0.16200
O1342       O  0.14269039  0.76636713  0.18467636    -0.60900
H1343       H  0.13981919  0.78886954  0.18636494     0.43200
H1344       H  0.10970902  0.71416452  0.06494317     0.43100
C1345       C  0.10099988  0.75534589  0.35343586    -0.05900
C1346       C  0.13096125  0.76408113  0.34592102    -0.33400
C1347       C  0.15398934  0.76463216  0.36815562     0.35900
C1348       C  0.14746314  0.75595409  0.39867251    -0.06300
C1349       C  0.11732682  0.74812782  0.40636207    -0.33300
C1350       C  0.09428978  0.74769281  0.38420279     0.35800
H1351       H  0.13668225  0.77061468  0.32265579     0.16200
O1352       O  0.18275956  0.77365671  0.35963761    -0.60800
H1353       H  0.11156752  0.74154456  0.42960244     0.16200
O1354       O  0.06543218  0.73922514  0.39298759    -0.60900
H1355       H  0.06453340  0.71673642  0.38969862     0.43200
H1356       H  0.18331893  0.79609624  0.36333061     0.43100
C1357       C  0.39754590  0.74763607  0.35097740    -0.05900
C1358       C  0.36660673  0.74789609  0.34219477    -0.33400
C1359       C  0.34319564  0.74719231  0.36405780     0.35900
C1360       C  0.35033176  0.74646980  0.39568521    -0.06300
C1361       C  0.38122819  0.74551550  0.40437805    -0.33300
C1362       C  0.40459176  0.74613165  0.38258092     0.35800
H1363       H  0.36031288  0.74878832  0.31818011     0.16200
O1364       O  0.31350400  0.74783775  0.35406313    -0.60800
H1365       H  0.38760075  0.74454722  0.42836610     0.16200
O1366       O  0.43422633  0.74488897  0.39267566    -0.60900
H1367       H  0.43939716  0.76622296  0.39858645     0.43200
H1368       H  0.30841083  0.72620981  0.34926235     0.43100
C1369       C  0.39958813  0.89735917  0.99842585    -0.05900
C1370       C  0.37033990  0.90424941  0.98705049    -0.33400
C1371       C  0.34747112  0.88184247  0.98571454     0.35900
C1372       C  0.35326156  0.85183886  0.99651579    -0.06300
C1373       C  0.38343189  0.84296557  0.50685847    -0.33300
C1374       C  0.40663589  0.86497719  0.50741082     0.35800
H1375       H  0.36522119  0.92705024  0.97862825     0.16200
O1376       O  0.31966455  0.88957403  0.97344640    -0.60800
H1377       H  0.38919745  0.81944340  0.51236400     0.16200
O1378       O  0.43562154  0.85588722  0.51511368    -0.60900
H1379       H  0.43665290  0.85785730  0.53775456     0.43200
H1380       H  0.32087537  0.88353535  0.95153651     0.43100
C1381       C  0.35116900  0.64727594  0.00226517    -0.05900
C1382       C  0.34454800  0.61751183  0.99182543    -0.33400
C1383       C  0.36693421  0.59450252  0.99162426     0.35900
C1384       C  0.39678664  0.60077296  0.00226669    -0.06300
C1385       C  0.40254758  0.62958279  0.51034786    -0.33300
C1386       C  0.38029864  0.65256993  0.51114280     0.35800
H1387       H  0.32203923  0.61212618  0.98303760     0.16200
O1388       O  0.35942146  0.56615743  0.98025387    -0.60800
H1389       H  0.42495160  0.63457848  0.51964123     0.16200
O1390       O  0.38773191  0.68046809  0.52364954    -0.60900
H1391       H  0.38274783  0.67868057  0.54576323     0.43200
H1392       H  0.36374031  0.56730990  0.95795729     0.43100
C1393       C  0.10318990  0.89996219  0.99813017    -0.05900
C1394       C  0.13362613  0.90797945  0.00456460    -0.33400
C1395       C  0.15691501  0.88595522  0.00419504     0.35900
C1396       C  0.15006494  0.85498602  0.99748247    -0.06300
C1397       C  0.12022232  0.84680205  0.50338421    -0.33300
C1398       C  0.09700469  0.86870816  0.50377195     0.35800
H1399       H  0.13949865  0.93141508  0.01033486     0.16200
O1400       O  0.18602408  0.89489728  0.01160331    -0.60800
H1401       H  0.11406210  0.82309724  0.50742429     0.16200
O1402       O  0.06771708  0.85905229  0.50922643    -0.60900
H1403       H  0.06531170  0.85980753  0.53183686     0.43200
H1404       H  0.19464986  0.90343818  0.99239825     0.43100
C1405       C  0.10097848  0.60336479  0.00275849    -0.05900
C1406       C  0.13089641  0.59636270  0.99354469    -0.33400
C1407       C  0.15360948  0.61888657  0.99279284     0.35900
C1408       C  0.14692594  0.64937205  0.00164142    -0.06300
C1409       C  0.11660076  0.65717749  0.49817810    -0.33300
C1410       C  0.09349375  0.63495078  0.49760932     0.35800
H1411       H  0.13674025  0.57333601  0.98626681     0.16200
O1412       O  0.18219060  0.61075107  0.98284168    -0.60800
H1413       H  0.11035821  0.68086600  0.49410088     0.16200
O1414       O  0.06414193  0.64421946  0.49172763    -0.60900
H1415       H  0.05603145  0.65128321  0.51175272     0.43200
H1416       H  0.18171409  0.61371160  0.96029676     0.43100
C1417       C  0.39847888  0.49794937  0.39688057    -0.05900
C1418       C  0.36785830  0.00812490  0.40530704    -0.33400
C1419       C  0.34448596  0.00889247  0.38337049     0.35900
C1420       C  0.35155135  0.49862703  0.35222058    -0.06300
C1421       C  0.38105515  0.50900212  0.34503966    -0.33300
C1422       C  0.40437242  0.50868946  0.36693809     0.35800
H1423       H  0.36240182  0.01445284  0.42870383     0.16200
O1424       O  0.31583134  0.01789175  0.39236095    -0.60800
H1425       H  0.38609232  0.51784605  0.32239101     0.16200
O1426       O  0.43242150  0.52026438  0.35912137    -0.60900
H1427       H  0.44294262  0.50338265  0.34810711     0.43200
H1428       H  0.31531134  0.04039978  0.38913341     0.43100
C1429       C  0.14747086  0.49927498  0.35136775    -0.05900
C1430       C  0.15565412  0.00246334  0.38167319    -0.33400
C1431       C  0.13383504  0.00281737  0.40505731     0.35900
C1432       C  0.10153687  0.50133003  0.39732503    -0.06300
C1433       C  0.09461820  0.49153203  0.36739268    -0.33300
C1434       C  0.11719036  0.49020153  0.34466065     0.35800
H1435       H  0.17938346  0.00565310  0.38791843     0.16200
O1436       O  0.14358011  0.00684432  0.43469770    -0.60800
H1437       H  0.07168388  0.48422379  0.36162791     0.16200
O1438       O  0.10932342  0.47957173  0.31610302    -0.60900
H1439       H  0.11390786  0.45729584  0.31651927     0.43200
H1440       H  0.14420094  0.02937179  0.43779539     0.43100
C1441       C  0.10266057  0.49871791  0.10214291    -0.05900
C1442       C  0.09471844  0.49532707  0.13317012    -0.33400
C1443       C  0.11701854  0.49523312  0.15614478     0.35900
C1444       C  0.14822265  0.49871298  0.14840675    -0.06300
C1445       C  0.15583313  0.99549874  0.11717013    -0.33300
C1446       C  0.13326031  0.99433707  0.09457419     0.35800
H1447       H  0.07104872  0.49267602  0.13985364     0.16200
O1448       O  0.10791728  0.49105606  0.18596730    -0.60800
H1449       H  0.17873644  0.98817318  0.11129464     0.16200
O1450       O  0.14115042  0.98419487  0.06585106    -0.60900
H1451       H  0.13713216  0.96181410  0.06606491     0.43200
H1452       H  0.10037789  0.51138038  0.19286310     0.43100
C1453       C  0.35408473  0.49696267  0.14922908    -0.05900
C1454       C  0.34537891  0.99737581  0.11770132    -0.33400
C1455       C  0.36752080  0.99716987  0.09458208     0.35900
C1456       C  0.39952373  0.49599982  0.10272496    -0.06300
C1457       C  0.40702188  0.50374542  0.13311697    -0.33300
C1458       C  0.38482797  0.50408458  0.15622194     0.35800
H1459       H  0.32171771  0.99439255  0.11111356     0.16200
O1460       O  0.35820306  0.99272109  0.06486788    -0.60800
H1461       H  0.43019143  0.51007071  0.13908688     0.16200
O1462       O  0.39341609  0.51256580  0.18528355    -0.60900
H1463       H  0.40136535  0.49357039  0.19491499     0.43200
H1464       H  0.35137211  0.01316561  0.05763967     0.43100
C1465       C  0.99878760  0.60216307  0.39800882    -0.05900
C1466       C  0.99022774  0.63230712  0.40545252    -0.33400
C1467       C  0.99097027  0.65554335  0.38343455     0.35900
C1468       C  0.00020010  0.64884501  0.35311872    -0.06300
C1469       C  0.50629204  0.61866696  0.34493176    -0.33300
C1470       C  0.50611467  0.59536187  0.36687857     0.35800
H1471       H  0.98265279  0.63797068  0.42842830     0.16200
O1472       O  0.98153953  0.68441904  0.39163488    -0.60800
H1473       H  0.51349423  0.61305118  0.32182657     0.16200
O1474       O  0.51506085  0.56647138  0.35820401    -0.60900
H1475       H  0.53727553  0.56558855  0.36253635     0.43200
H1476       H  0.99942448  0.69393221  0.40186064     0.43100
C1477       C  0.99975813  0.89878556  0.39746767    -0.05900
C1478       C  0.48859948  0.86899739  0.40389564    -0.33400
C1479       C  0.48768769  0.84618858  0.38138761     0.35900
C1480       C  0.99903421  0.85204067  0.35243711    -0.06300
C1481       C  0.99369734  0.88274609  0.34433254    -0.33300
C1482       C  0.99373826  0.90592216  0.36643617     0.35800
H1483       H  0.47930335  0.86400566  0.42637098     0.16200
O1484       O  0.47431503  0.81860627  0.38829115    -0.60800
H1485       H  0.98912182  0.88896602  0.32072177     0.16200
O1486       O  0.98770075  0.93539770  0.35727183    -0.60900
H1487       H  0.96517818  0.93749466  0.35840766     0.43200
H1488       H  0.48980572  0.80717381  0.40031839     0.43100
C1489       C  0.99898693  0.85147881  0.14789351    -0.05900
C1490       C  0.50423702  0.88231037  0.15514767    -0.33400
C1491       C  0.50449330  0.90553147  0.13310413     0.35900
C1492       C  0.00032716  0.89817959  0.10286794    -0.06300
C1493       C  0.98805821  0.86917089  0.09609499    -0.33300
C1494       C  0.98718603  0.84601483  0.11826552     0.35800
H1495       H  0.50881897  0.88849325  0.17877869     0.16200
O1496       O  0.51044494  0.93497050  0.14246925    -0.60800
H1497       H  0.97868840  0.86447067  0.07358979     0.16200
O1498       O  0.97442453  0.81828415  0.11073339    -0.60900
H1499       H  0.95248712  0.82027344  0.11599544     0.43200
H1500       H  0.53298530  0.93698413  0.14170824     0.43100
C1501       C  0.00196159  0.60257178  0.10183254    -0.05900
C1502       C  0.50110592  0.59384644  0.13260242    -0.33400
C1503       C  0.50070394  0.61592373  0.15582540     0.35900
C1504       C  0.00268992  0.64758809  0.14858450    -0.06300
C1505       C  0.99044092  0.65422186  0.11954210    -0.33300
C1506       C  0.99006725  0.63213283  0.09628927     0.35800
H1507       H  0.49808385  0.57004410  0.13898985     0.16200
O1508       O  0.49693126  0.60632816  0.18553549    -0.60800
H1509       H  0.98055128  0.67652678  0.11490893     0.16200
O1510       O  0.97667691  0.63931387  0.06875585    -0.60900
H1511       H  0.99260666  0.65039044  0.05700649     0.43200
H1512       H  0.47453116  0.60598547  0.18886443     0.43100
O1513       O  0.00175058  0.54996122  0.58679990    -0.87000
O1514       O  0.00032538  0.54876226  0.91314988    -0.87100
O1515       O  0.04854969  0.58760238  0.50070624    -0.88800
O1516       O  0.44820505  0.58591786  0.49884544    -0.87600
O1517       O  0.41178636  0.54818364  0.49817575    -0.87100
O1518       O  0.08596766  0.55088435  0.50054064    -0.88500
O1519       O  0.99962991  0.58608165  0.95014630    -0.87000
O1520       O  0.00052517  0.58723723  0.54979160    -0.86600
Zr1521     Zr  0.99901694  0.56209143  0.50004306     2.84300
O1522       O  0.46916377  0.53047575  0.96899710    -1.08600
O1523       O  0.03035968  0.53126201  0.53064986    -1.09300
C1524       C  0.00181665  0.57822555  0.57795724     1.06100
C1525       C  0.99999632  0.57700062  0.92192052     1.06100
C1526       C  0.07682414  0.57912838  0.50098301     1.09100
C1527       C  0.42021062  0.57656869  0.49829340     1.06900
H1528       H  0.04410837  0.54395636  0.95665955     0.32400
O1529       O  0.03146245  0.53105466  0.96937590    -1.29500
H1530       H  0.45501787  0.54334447  0.54312977     0.32100
O1531       O  0.46796638  0.53067902  0.53043477    -1.31200
O1532       O  0.00206217  0.95004135  0.91424361    -0.87000
O1533       O  0.99979006  0.95018821  0.58657357    -0.88500
O1534       O  0.08753001  0.50064966  0.95065255    -0.87000
O1535       O  0.41349799  0.50111282  0.95042963    -0.87100
O1536       O  0.41301280  0.49863418  0.54935188    -0.86800
O1537       O  0.08676842  0.50066518  0.54898092    -0.86600
O1538       O  0.05150858  0.91471731  0.49875457    -0.87000
O1539       O  0.45204671  0.91146273  0.50007456    -0.86400
O1540       O  0.08804888  0.95219275  0.49956161    -0.87500
O1541       O  0.41467566  0.94820119  0.49997510    -0.86700
O1542       O  0.05049210  0.49987287  0.91352404    -0.87100
O1543       O  0.05015631  0.50009667  0.58650716    -0.86800
O1544       O  0.44997837  0.50028004  0.58660117    -0.86400
O1545       O  0.45045432  0.50109484  0.91330673    -0.86800
O1546       O  0.00105271  0.91293530  0.95146798    -0.87100
O1547       O  0.00094860  0.91295434  0.54956151    -0.88500
Zr1548     Zr  0.00083862  0.49956205  0.93884729     2.83100
Zr1549     Zr  0.00003545  0.50013007  0.56177815     2.83500
Zr1550     Zr  0.06124439  0.50058147  0.49947652     2.84100
Zr1551     Zr  0.43797961  0.49888633  0.49934348     2.83400
Zr1552     Zr  0.00120247  0.93851157  0.49975656     2.84200
O1553       O  0.46956645  0.96846705  0.53066131    -1.09000
O1554       O  0.03143929  0.96966517  0.96980396    -1.08500
C1555       C  0.00188704  0.92178047  0.92320433     1.06100
C1556       C  0.00027995  0.92189091  0.57785930     1.08700
C1557       C  0.07865710  0.50041792  0.92239074     1.06300
C1558       C  0.42228854  0.50171252  0.92210260     1.06700
C1559       C  0.42182510  0.49933756  0.57764938     1.06200
C1560       C  0.07824628  0.50050238  0.57731331     1.05800
C1561       C  0.07955389  0.92383822  0.49902331     1.06200
C1562       C  0.42384675  0.92002914  0.50023928     1.05700
H1563       H  0.04447789  0.95705428  0.54389500     0.32400
O1564       O  0.03154192  0.96961668  0.53109174    -1.30100
H1565       H  0.45754034  0.95614131  0.95566715     0.32400
O1566       O  0.47008202  0.96904894  0.96852302    -1.31500
O1567       O  0.00249258  0.69945395  0.66363552    -0.87000
O1568       O  0.99969611  0.69985027  0.83750622    -0.87100
O1569       O  0.04866831  0.66209501  0.75123546    -0.88800
O1570       O  0.44830857  0.66413785  0.75155026    -0.87600
O1571       O  0.41187653  0.70174724  0.75014169    -0.87100
O1572       O  0.08580196  0.69903984  0.75085966    -0.88500
O1573       O  0.99931392  0.66253624  0.80049593    -0.87000
O1574       O  0.00144089  0.66266185  0.70107597    -0.86600
Zr1575     Zr  0.99973907  0.68783696  0.75074393     2.84300
O1576       O  0.46794506  0.71962210  0.78083950    -1.08600
O1577       O  0.03108075  0.71838115  0.71984489    -1.09300
C1578       C  0.00239902  0.67128037  0.67279354     1.06100
C1579       C  0.99943057  0.67157275  0.82873078     1.06100
C1580       C  0.07678366  0.67075680  0.75106892     1.09100
C1581       C  0.42024111  0.67342199  0.75120814     1.06900
H1582       H  0.04352922  0.70585530  0.79471521     0.32400
O1583       O  0.03084464  0.71855292  0.78179762    -1.29500
H1584       H  0.45562083  0.70611008  0.70604389     0.32100
O1585       O  0.46843516  0.71889884  0.71874885    -1.31200
O1586       O  0.99935523  0.79897288  0.83806043    -0.87000
O1587       O  0.00017439  0.79880411  0.66321691    -0.88500
O1588       O  0.08665413  0.75116112  0.80031236    -0.87000
O1589       O  0.41232646  0.74923445  0.79871967    -0.87100
O1590       O  0.41367445  0.75062892  0.69920397    -0.86800
O1591       O  0.08757442  0.74982150  0.70167100    -0.86600
O1592       O  0.04925436  0.83700883  0.75131519    -0.87000
O1593       O  0.45008682  0.83778504  0.74812146    -0.86400
O1594       O  0.08643269  0.80002180  0.75141516    -0.87500
O1595       O  0.41325642  0.80060416  0.74765154    -0.86700
O1596       O  0.04934732  0.75109449  0.83713229    -0.87100
O1597       O  0.05092853  0.74982776  0.66423413    -0.86800
O1598       O  0.45067891  0.74954638  0.66218822    -0.86400
O1599       O  0.44914300  0.74915979  0.83598621    -0.86800
O1600       O  0.00044931  0.83631173  0.80107531    -0.87100
O1601       O  0.99948731  0.83611263  0.70021031    -0.88500
Zr1602     Zr  0.99961917  0.74954786  0.81225705     2.83100
Zr1603     Zr  0.00058577  0.74933924  0.68865478     2.83500
Zr1604     Zr  0.06155871  0.74968041  0.75081543     2.84100
Zr1605     Zr  0.43801298  0.75070463  0.74929249     2.83400
Zr1606     Zr  0.99982890  0.81146089  0.75062539     2.84200
O1607       O  0.46910421  0.78095573  0.71825388    -1.09000
O1608       O  0.03057623  0.78056767  0.78166649    -1.08500
C1609       C  0.00000132  0.82724620  0.82935258     1.06100
C1610       C  0.99967809  0.82709143  0.67189702     1.08700
C1611       C  0.07752191  0.75158680  0.82843664     1.06300
C1612       C  0.42107367  0.74846374  0.82701653     1.06700
C1613       C  0.42249288  0.75016203  0.67097370     1.06200
C1614       C  0.07907888  0.74994541  0.67334105     1.05800
C1615       C  0.07745963  0.82833216  0.75148673     1.06200
C1616       C  0.42193698  0.82887951  0.74747041     1.05700
H1617       H  0.04381981  0.79357116  0.70697775     0.32400
O1618       O  0.03105900  0.78073259  0.71964135    -1.30100
H1619       H  0.45532826  0.79470315  0.79345332     0.32400
O1620       O  0.46813127  0.78182766  0.78080891    -1.31500
O1621       O  0.33698539  0.00011021  0.70085740    -0.87000
O1622       O  0.16344017  0.00170192  0.70017908    -0.87100
O1623       O  0.24883312  0.95123758  0.66280734    -0.88800
O1624       O  0.24913751  0.55069695  0.66367603    -0.87600
O1625       O  0.24831239  0.58781734  0.70091239    -0.87100
O1626       O  0.24852163  0.91391022  0.69963355    -0.88500
O1627       O  0.20023457  0.00197659  0.66292519    -0.87000
O1628       O  0.30030632  0.99896594  0.66334295    -0.86600
Zr1629     Zr  0.25001692  0.00073629  0.68813499     2.84300
O1630       O  0.21865880  0.53076044  0.71870078    -1.08600
O1631       O  0.28093396  0.96996813  0.71896538    -1.09300
C1632       C  0.32844780  0.99905952  0.67252088     1.06100
C1633       C  0.17209086  0.00237368  0.67191173     1.06100
C1634       C  0.24817898  0.92297894  0.67143236     1.09100
C1635       C  0.24879949  0.57897935  0.67263828     1.06900
H1636       H  0.20592769  0.95700686  0.70589170     0.32400
O1637       O  0.21879577  0.96969583  0.71864004    -1.29500
H1638       H  0.29307881  0.54467119  0.70631819     0.32100
O1639       O  0.28044922  0.53166203  0.71894360    -1.31200
O1640       O  0.16273687  0.00041761  0.79972438    -0.87000
O1641       O  0.33590418  0.00049470  0.80046061    -0.88500
O1642       O  0.20026188  0.91361901  0.75100655    -0.87000
O1643       O  0.19924511  0.58623696  0.75005731    -0.87100
O1644       O  0.29829255  0.58788080  0.75114391    -0.86800
O1645       O  0.30020760  0.91457702  0.74735488    -0.86600
O1646       O  0.24924380  0.95053021  0.83608100    -0.87000
O1647       O  0.24737902  0.54925934  0.83726473    -0.86400
O1648       O  0.25045277  0.91346313  0.79889071    -0.87500
O1649       O  0.24741672  0.58645511  0.80019744    -0.86700
O1650       O  0.16308898  0.95060515  0.75081697    -0.87100
O1651       O  0.33698666  0.95187123  0.74863159    -0.86800
O1652       O  0.33533436  0.55089956  0.75080059    -0.86400
O1653       O  0.16261219  0.54882780  0.74994110    -0.86800
O1654       O  0.19969377  0.00042728  0.83699302    -0.87100
O1655       O  0.29885760  0.00017558  0.83747034    -0.88500
Zr1656     Zr  0.18817255  0.00058815  0.74998800     2.83100
Zr1657     Zr  0.31120328  0.00117435  0.75026457     2.83500
Zr1658     Zr  0.24993628  0.93896768  0.74947809     2.84100
Zr1659     Zr  0.24901437  0.56177902  0.75014675     2.83400
Zr1660     Zr  0.24943834  0.00048728  0.81161035     2.84200
O1661       O  0.28011014  0.53150676  0.78137931    -1.09000
O1662       O  0.21879886  0.96936816  0.78075363    -1.08500
C1663       C  0.17153816  0.00034541  0.82802086     1.06100
C1664       C  0.32705514  0.00010419  0.82875563     1.08700
C1665       C  0.17204048  0.92233088  0.75133681     1.06300
C1666       C  0.17122016  0.57718880  0.75031631     1.06700
C1667       C  0.32650385  0.57909720  0.75116550     1.06200
C1668       C  0.32835908  0.92361598  0.74731381     1.05800
C1669       C  0.25001829  0.92232760  0.82714834     1.06200
C1670       C  0.24680081  0.57746999  0.82842274     1.05700
H1671       H  0.29348698  0.95680575  0.79352071     0.32400
O1672       O  0.28068511  0.96965264  0.78087126    -1.30100
H1673       H  0.20523438  0.54305252  0.79355104     0.32400
O1674       O  0.21831351  0.53055430  0.78083428    -1.31500
O1675       O  0.19895137  0.66480717  0.00115271    -0.87000
O1676       O  0.20208391  0.83891285  0.99769111    -0.87100
O1677       O  0.16380136  0.75184835  0.55010040    -0.88800
O1678       O  0.16333535  0.75270592  0.94936696    -0.87600
O1679       O  0.20014269  0.75231585  0.91205003    -0.87100
O1680       O  0.20092113  0.75096392  0.58704892    -0.88500
O1681       O  0.16449452  0.80241148  0.99839600    -0.87000
O1682       O  0.16200740  0.70206507  0.00060627    -0.86600
Zr1683     Zr  0.18819919  0.75166835  0.99934389     2.84300
O1684       O  0.21918952  0.78188577  0.96792380    -1.08600
O1685       O  0.21910775  0.72018849  0.53113838    -1.09300
C1686       C  0.17080903  0.67371064  0.00113492     1.06100
C1687       C  0.17380977  0.83056371  0.99785875     1.06100
C1688       C  0.17265386  0.75140825  0.57832896     1.09100
C1689       C  0.17210774  0.75307477  0.92107206     1.06900
H1690       H  0.20734266  0.79535029  0.54351155     0.32400
O1691       O  0.21991541  0.78235955  0.53076794    -1.29500
H1692       H  0.20501719  0.70696043  0.95588520     0.32100
O1693       O  0.21809347  0.71958576  0.96848872    -1.30800
O1694       O  0.30094421  0.83707473  0.99713114    -0.87000
O1695       O  0.29891957  0.66292434  0.00032794    -0.88500
O1696       O  0.24990831  0.80049969  0.58630188    -0.87000
O1697       O  0.25064317  0.79884682  0.91123822    -0.87100
O1698       O  0.24772451  0.70008485  0.91294781    -0.86800
O1699       O  0.25055028  0.70215894  0.58781774    -0.86600
O1700       O  0.33767941  0.75010197  0.54767586    -0.87000
O1701       O  0.33576359  0.74746142  0.94832344    -0.86400
O1702       O  0.30114574  0.75197311  0.58516971    -0.87500
O1703       O  0.29834030  0.74721110  0.91167682    -0.86700
O1704       O  0.25028626  0.83765883  0.54930998    -0.87100
O1705       O  0.24963533  0.66461546  0.55101639    -0.86800
O1706       O  0.24814810  0.66292485  0.95001581    -0.86400
O1707       O  0.25101670  0.83638210  0.94794149    -0.86800
O1708       O  0.33756643  0.79950325  0.99756625    -0.87100
O1709       O  0.33624490  0.69977470  0.00031227    -0.88500
Zr1710     Zr  0.25099215  0.81241360  0.99828887     2.83100
Zr1711     Zr  0.24916492  0.68878724  0.99958691     2.83500
Zr1712     Zr  0.25066180  0.75099775  0.56132518     2.84100
Zr1713     Zr  0.24939044  0.74990240  0.93752297     2.83400
Zr1714     Zr  0.31152251  0.74987997  0.99855245     2.84200
O1715       O  0.28032455  0.71871028  0.96806203    -1.09000
O1716       O  0.28192555  0.78117691  0.53010155    -1.08500
C1717       C  0.32901240  0.82791646  0.99699602     1.06100
C1718       C  0.32721023  0.67157071  0.00091549     1.08700
C1719       C  0.24962108  0.82870177  0.57757922     1.06300
C1720       C  0.25099181  0.82715922  0.91977111     1.06700
C1721       C  0.24762028  0.67188441  0.92176775     1.06200
C1722       C  0.25000439  0.67385021  0.57926069     1.05800
C1723       C  0.32923356  0.75124219  0.57598539     1.06200
C1724       C  0.32654212  0.74670417  0.92016010     1.05700
H1725       H  0.29379251  0.70654026  0.54336894     0.32400
O1726       O  0.28103877  0.71929483  0.53057892    -1.30100
H1727       H  0.29407012  0.79324526  0.95415603     0.32400
O1728       O  0.28123036  0.78095762  0.96727831    -1.31500
C1729       C  0.24935952  0.60322223  0.64871219    -0.05900
C1730       C  0.24085874  0.63342642  0.65622655    -0.33400
C1731       C  0.24110780  0.65668896  0.63411453     0.35900
C1732       C  0.24995970  0.65005145  0.60362625    -0.06300
C1733       C  0.25885809  0.61998178  0.59629365    -0.33300
C1734       C  0.25888458  0.59683466  0.61843281     0.35800
H1735       H  0.23364083  0.63909854  0.67931414     0.16200
O1736       O  0.23243478  0.68571167  0.64266112    -0.60800
H1737       H  0.26625724  0.61431925  0.57326584     0.16200
O1738       O  0.26861058  0.56810515  0.61010655    -0.60900
H1739       H  0.29078598  0.56779655  0.61472457     0.43200
H1740       H  0.21008132  0.68651952  0.63912212     0.43100
C1741       C  0.24816910  0.85253532  0.60187095    -0.05900
C1742       C  0.24545496  0.88353235  0.59356417    -0.33400
C1743       C  0.24444051  0.90659796  0.61577955     0.35900
C1744       C  0.24708577  0.89907815  0.64720843    -0.06300
C1745       C  0.24896895  0.86803443  0.65554807    -0.33300
C1746       C  0.24912246  0.84491781  0.63339978     0.35800
H1747       H  0.24395344  0.89011825  0.56966085     0.16200
O1748       O  0.24110564  0.93638572  0.60626635    -0.60800
H1749       H  0.25052220  0.86141568  0.67944039     0.16200
O1750       O  0.25084761  0.81503317  0.64306740    -0.60900
H1751       H  0.22940808  0.80871313  0.64673143     0.43200
H1752       H  0.21876289  0.94015067  0.60619650     0.43100
C1753       C  0.25061896  0.89818862  0.85103878    -0.05900
C1754       C  0.24729391  0.86730294  0.84239738    -0.33400
C1755       C  0.24785887  0.84389206  0.86420197     0.35900
C1756       C  0.25139404  0.85107140  0.89561826    -0.06300
C1757       C  0.25515179  0.88191998  0.90417615    -0.33300
C1758       C  0.25476194  0.90529947  0.88237674     0.35800
H1759       H  0.24411639  0.86106253  0.81854954     0.16200
O1760       O  0.24424861  0.81421481  0.85440320    -0.60800
H1761       H  0.25845351  0.88819561  0.92799649     0.16200
O1762       O  0.25928314  0.93489266  0.89207583    -0.60900
H1763       H  0.23900969  0.94206491  0.89924302     0.43200
H1764       H  0.26507707  0.80709428  0.84899216     0.43100
C1765       C  0.24571503  0.60152059  0.85237983    -0.05900
C1766       C  0.25433285  0.63156398  0.84481643    -0.33400
C1767       C  0.25480046  0.65468145  0.86694706     0.35900
C1768       C  0.24663587  0.64805075  0.89757166    -0.06300
C1769       C  0.23744455  0.61813152  0.90504350    -0.33300
C1770       C  0.23670864  0.59505700  0.88279261     0.35800
H1771       H  0.26145723  0.63718899  0.82170381     0.16200
O1772       O  0.26483249  0.68326063  0.85857033    -0.60800
H1773       H  0.23061593  0.61251874  0.92823770     0.16200
O1774       O  0.22693988  0.56638416  0.89111741    -0.60900
H1775       H  0.20455138  0.56668027  0.88777642     0.43200
H1776       H  0.24682991  0.69352648  0.84933007     0.43100
C1777       C  0.39588927  0.64966744  0.75178292    -0.05900
C1778       C  0.40408980  0.61857435  0.75014514    -0.33400
C1779       C  0.38201784  0.59550384  0.75010580     0.35900
C1780       C  0.35063446  0.60310144  0.75155225    -0.06300
C1781       C  0.34239245  0.63420160  0.75350466    -0.33300
C1782       C  0.36454238  0.65731537  0.75363453     0.35800
H1783       H  0.42786070  0.61185432  0.74870854     0.16200
O1784       O  0.39164330  0.56562847  0.74809527    -0.60800
H1785       H  0.31860031  0.64083588  0.75498845     0.16200
O1786       O  0.35512180  0.68721367  0.75621973    -0.60900
H1787       H  0.34955560  0.69353281  0.73510673     0.43200
H1788       H  0.39563692  0.55921475  0.76954906     0.43100
C1789       C  0.39775279  0.85289796  0.74663330    -0.05900
C1790       C  0.40563100  0.88355800  0.74055764    -0.33400
C1791       C  0.38344759  0.90670456  0.74002935     0.35900
C1792       C  0.35251792  0.89961061  0.74611051    -0.06300
C1793       C  0.34462394  0.86890044  0.75164777    -0.33300
C1794       C  0.36672109  0.84577454  0.75201663     0.35800
H1795       H  0.42914346  0.88975414  0.73601837     0.16200
O1796       O  0.39248192  0.93614906  0.73372351    -0.60800
H1797       H  0.32115183  0.86263988  0.75629766     0.16200
O1798       O  0.35749927  0.81630638  0.75788295    -0.60900
H1799       H  0.35889957  0.81400314  0.78047129     0.43200
H1800       H  0.39030317  0.93836424  0.71118729     0.43100
C1801       C  0.10054405  0.64640652  0.75130091    -0.05900
C1802       C  0.13105836  0.65440189  0.75705650    -0.33400
C1803       C  0.15409734  0.63224331  0.75740596     0.35900
C1804       C  0.14712298  0.60118900  0.75120048    -0.06300
C1805       C  0.11652840  0.59307815  0.74591280    -0.33300
C1806       C  0.09339396  0.61519634  0.74600017     0.35800
H1807       H  0.13724127  0.67800310  0.76170208     0.16200
O1808       O  0.18333124  0.64141315  0.76397510    -0.60800
H1809       H  0.11036177  0.56944570  0.74139780     0.16200
O1810       O  0.06392388  0.60582117  0.74093156    -0.60900
H1811       H  0.06116147  0.60660875  0.71836471     0.43200
H1812       H  0.18503742  0.64024795  0.78663354     0.43100
C1813       C  0.10138298  0.85268629  0.75173683    -0.05900
C1814       C  0.13160765  0.84515591  0.75963495    -0.33400
C1815       C  0.15465657  0.86742961  0.76001315     0.35900
C1816       C  0.14798782  0.89812918  0.75201701    -0.06300
C1817       C  0.11770787  0.90571675  0.74438921    -0.33300
C1818       C  0.09463846  0.88348721  0.74412072     0.35800
H1819       H  0.13749732  0.82185658  0.76589962     0.16200
O1820       O  0.18358866  0.85876231  0.76839195    -0.60800
H1821       H  0.11179059  0.92901327  0.73813876     0.16200
O1822       O  0.06562599  0.89230341  0.73616228    -0.60900
H1823       H  0.06437999  0.88922534  0.71365168     0.43200
H1824       H  0.18465982  0.86237833  0.79083297     0.43100
C1825       C  0.39846115  0.75039923  0.64682409    -0.05900
C1826       C  0.40691043  0.75170361  0.61574164    -0.33400
C1827       C  0.38491291  0.75236295  0.59247193     0.35900
C1828       C  0.35348589  0.75137413  0.59990270    -0.06300
C1829       C  0.34508827  0.75015451  0.63096963    -0.33300
C1830       C  0.36703810  0.74953827  0.65420373     0.35800
H1831       H  0.43076393  0.75243968  0.60923841     0.16200
O1832       O  0.39462637  0.75383369  0.56260424    -0.60800
H1833       H  0.32125563  0.74941575  0.63754478     0.16200
O1834       O  0.35725004  0.74826239  0.68405043    -0.60900
H1835       H  0.35356233  0.72620648  0.68810882     0.43200
H1836       H  0.39673123  0.77603090  0.55814390     0.43100
C1837       C  0.10338639  0.75046800  0.64940010    -0.05900
C1838       C  0.09518760  0.75430487  0.61847981    -0.33400
C1839       C  0.11720701  0.75471826  0.59525904     0.35900
C1840       C  0.14853861  0.75133792  0.60250690    -0.06300
C1841       C  0.15678119  0.74766992  0.63346228    -0.33300
C1842       C  0.13473004  0.74738521  0.65672472     0.35800
H1843       H  0.07146143  0.75711221  0.61203472     0.16200
O1844       O  0.10762996  0.75904860  0.56561792    -0.60800
H1845       H  0.18052373  0.74492068  0.63987016     0.16200
O1846       O  0.14425151  0.74348989  0.68644821    -0.60900
H1847       H  0.15028082  0.76423487  0.69356464     0.43200
H1848       H  0.10218214  0.73831747  0.55800494     0.43100
C1849       C  0.10133238  0.75269466  0.85248334    -0.05900
C1850       C  0.13088656  0.76268399  0.84491605    -0.33400
C1851       C  0.15404067  0.76347083  0.86695509     0.35900
C1852       C  0.14799542  0.75386426  0.89726975    -0.06300
C1853       C  0.11831895  0.74439081  0.90490403    -0.33300
C1854       C  0.09518683  0.74361451  0.88290533     0.35800
H1855       H  0.13612939  0.77017604  0.82182201     0.16200
O1856       O  0.18237670  0.77383249  0.85852359    -0.60800
H1857       H  0.11303812  0.73683903  0.92796208     0.16200
O1858       O  0.06681932  0.73340636  0.89143588    -0.60900
H1859       H  0.06701892  0.71103469  0.88732822     0.43200
H1860       H  0.18190236  0.79624856  0.86236516     0.43100
C1861       C  0.39701501  0.74676256  0.85095296    -0.05900
C1862       C  0.36622901  0.75030431  0.84255225    -0.33400
C1863       C  0.34300051  0.74952330  0.86449280     0.35900
C1864       C  0.35024912  0.74557372  0.89584054    -0.06300
C1865       C  0.38094372  0.74113154  0.90411968    -0.33300
C1866       C  0.40414497  0.74167231  0.88216277     0.35800
H1867       H  0.35993730  0.75403773  0.81881269     0.16200
O1868       O  0.31343018  0.75361465  0.85494388    -0.60800
H1869       H  0.38722942  0.73737222  0.92785634     0.16200
O1870       O  0.43361259  0.73665028  0.89159775    -0.60900
H1871       H  0.44087814  0.75673804  0.89939653     0.43200
H1872       H  0.30674179  0.73321902  0.84743366     0.43100
C1873       C  0.39996410  0.89590607  0.50043552    -0.05900
C1874       C  0.36968224  0.90400095  0.49352227    -0.33400
C1875       C  0.34649378  0.88209224  0.49314783     0.35900
C1876       C  0.35316597  0.85111552  0.49989763    -0.06300
C1877       C  0.38264170  0.84484006  0.00746745    -0.33300
C1878       C  0.40560539  0.86716885  0.00851917     0.35800
H1879       H  0.36379654  0.92748917  0.48799787     0.16200
O1880       O  0.31744339  0.89140279  0.48591601    -0.60800
H1881       H  0.38778735  0.82203589  0.01585478     0.16200
O1882       O  0.43373030  0.85918023  0.01984675    -0.60900
H1883       H  0.43257541  0.86322510  0.04220592     0.43200
H1884       H  0.31564508  0.88849561  0.46342055     0.43100
C1885       C  0.35075239  0.64684295  0.49949857    -0.05900
C1886       C  0.34413738  0.61760018  0.48763928    -0.33400
C1887       C  0.36646853  0.59460386  0.48675854     0.35900
C1888       C  0.39602620  0.60040908  0.49833010    -0.06300
C1889       C  0.40324953  0.63039106  0.01326932    -0.33300
C1890       C  0.38082935  0.65337228  0.01356256     0.35800
H1891       H  0.32170858  0.61267281  0.47838047     0.16200
O1892       O  0.35919744  0.56675490  0.47404906    -0.60800
H1893       H  0.42579121  0.63579845  0.02196526     0.16200
O1894       O  0.38825343  0.68165823  0.02515808    -0.60900
H1895       H  0.38260441  0.68080295  0.04716851     0.43200
H1896       H  0.36562450  0.56820555  0.45228755     0.43100
C1897       C  0.10383037  0.89996804  0.49879897    -0.05900
C1898       C  0.13442509  0.90837884  0.49373752    -0.33400
C1899       C  0.15773903  0.88638384  0.49340160     0.35900
C1900       C  0.15079218  0.85509946  0.49839958    -0.06300
C1901       C  0.11972795  0.84714021  0.99052430    -0.33300
C1902       C  0.09650420  0.86913753  0.99077208     0.35800
H1903       H  0.14044201  0.93214578  0.48981709     0.16200
O1904       O  0.18714537  0.89594045  0.48834712    -0.60800
H1905       H  0.11379978  0.82373620  0.98468761     0.16200
O1906       O  0.06752304  0.86025871  0.98280153    -0.60900
H1907       H  0.05866222  0.85132182  0.00171446     0.43200
H1908       H  0.18979021  0.89538508  0.46576102     0.43100
C1909       C  0.10065275  0.60361245  0.50202428    -0.05900
C1910       C  0.13123252  0.59564704  0.50780330    -0.33400
C1911       C  0.15429047  0.61788403  0.50862100     0.35900
C1912       C  0.14725977  0.64912985  0.50339310    -0.06300
C1913       C  0.11703198  0.65639097  0.01108109    -0.33300
C1914       C  0.09429167  0.63376489  0.01195104     0.35800
H1915       H  0.13748966  0.57196476  0.51190552     0.16200
O1916       O  0.18350114  0.60869910  0.51532941    -0.60800
H1917       H  0.11124182  0.67947802  0.01817488     0.16200
O1918       O  0.06569850  0.64171647  0.02205311    -0.60900
H1919       H  0.06598803  0.63790542  0.04447450     0.43200
H1920       H  0.19211625  0.60141219  0.49558664     0.43100
C1921       C  0.39820450  0.50320758  0.89787832    -0.05900
C1922       C  0.36814156  0.99446488  0.90595029    -0.33400
C1923       C  0.34460291  0.99478793  0.88417751     0.35900
C1924       C  0.35121131  0.50440041  0.85276619    -0.06300
C1925       C  0.38177080  0.49893497  0.84453125    -0.33300
C1926       C  0.40502287  0.49830079  0.86654471     0.35800
H1927       H  0.36217338  0.99064155  0.92975004     0.16200
O1928       O  0.31524201  0.98993240  0.89395314    -0.60800
H1929       H  0.38782577  0.49452806  0.82084471     0.16200
O1930       O  0.43429486  0.49256004  0.85695035    -0.60900
H1931       H  0.43643516  0.46991970  0.85741125     0.43200
H1932       H  0.30767805  0.01038025  0.90043847     0.43100
C1933       C  0.14752137  0.49895928  0.85149890    -0.05900
C1934       C  0.15359359  0.01415840  0.88070209    -0.33400
C1935       C  0.13116229  0.01557616  0.90355346     0.35900
C1936       C  0.10252185  0.50052156  0.89819707    -0.06300
C1937       C  0.09536150  0.48986911  0.86860329    -0.33300
C1938       C  0.11747745  0.48888531  0.84547066     0.35800
H1939       H  0.17574842  0.02408688  0.88529731     0.16200
O1940       O  0.13788797  0.03004281  0.93068747    -0.60800
H1941       H  0.07258289  0.48169981  0.86340159     0.16200
O1942       O  0.10943347  0.47762136  0.81720854    -0.60900
H1943       H  0.11447896  0.45545533  0.81792245     0.43200
H1944       H  0.13163617  0.05169560  0.92764471     0.43100
C1945       C  0.10254749  0.50044874  0.60113017    -0.05900
C1946       C  0.09554957  0.49084459  0.63104812    -0.33400
C1947       C  0.11784625  0.49032911  0.65402498     0.35900
C1948       C  0.14811185  0.49940653  0.64740712    -0.06300
C1949       C  0.15597909  0.00200291  0.61682687    -0.33300
C1950       C  0.13375987  0.00202100  0.59376797     0.35800
H1951       H  0.07265807  0.48341188  0.63675175     0.16200
O1952       O  0.10984415  0.48002557  0.68262875    -0.60800
H1953       H  0.17974576  0.00055646  0.61010393     0.16200
O1954       O  0.14325571  0.00075555  0.56380829    -0.60900
H1955       H  0.14569813  0.97860897  0.55920581     0.43200
H1956       H  0.10083104  0.49805950  0.69316287     0.43100
C1957       C  0.35250690  0.50060838  0.64830711    -0.05900
C1958       C  0.34655140  0.98505676  0.61978778    -0.33400
C1959       C  0.36886291  0.98421118  0.59671255     0.35900
C1960       C  0.39781107  0.49938578  0.60175406    -0.06300
C1961       C  0.40417331  0.51195692  0.63076672    -0.33300
C1962       C  0.38196076  0.51258995  0.65389013     0.35800
H1963       H  0.32430091  0.97529194  0.61505701     0.16200
O1964       O  0.36217453  0.96997330  0.56944726    -0.60800
H1965       H  0.42640013  0.52177317  0.63551349     0.16200
O1966       O  0.38900675  0.52614502  0.68140219    -0.60900
H1967       H  0.39922197  0.50991539  0.69359338     0.43200
H1968       H  0.35027541  0.98519759  0.55750826     0.43100
C1969       C  0.00007794  0.60091332  0.89783984    -0.05900
C1970       C  0.99084205  0.63083290  0.90531204    -0.33400
C1971       C  0.99076166  0.65405369  0.88329175     0.35900
C1972       C  0.99959907  0.64759397  0.85281947    -0.06300
C1973       C  0.50129174  0.61803563  0.84440216    -0.33300
C1974       C  0.50166346  0.59469544  0.86626332     0.35800
H1975       H  0.98339397  0.63636493  0.92836042     0.16200
O1976       O  0.98102900  0.68272484  0.89173340    -0.60800
H1977       H  0.50523282  0.61187437  0.82065229     0.16200
O1978       O  0.50687114  0.56521509  0.85655496    -0.60900
H1979       H  0.52937700  0.56271064  0.85692808     0.43200
H1980       H  0.99918907  0.69282788  0.90083217     0.43100
C1981       C  0.00215929  0.89755124  0.89925394    -0.05900
C1982       C  0.49466964  0.86869812  0.90485206    -0.33400
C1983       C  0.49394022  0.84554923  0.88271323     0.35900
C1984       C  0.00052458  0.85113256  0.85368183    -0.06300
C1985       C  0.01369532  0.87983310  0.84750138    -0.33300
C1986       C  0.01468107  0.90284007  0.86992857     0.35800
H1987       H  0.48777141  0.86310383  0.92804036     0.16200
O1988       O  0.48446023  0.81684750  0.89133498    -0.60800
H1989       H  0.02371548  0.88440148  0.82525666     0.16200
O1990       O  0.02908646  0.92995244  0.86329274    -0.60900
H1991       H  0.01429914  0.94178326  0.85076999     0.43200
H1992       H  0.50275931  0.80689615  0.90032852     0.43100
C1993       C  0.99952611  0.85107300  0.64755055    -0.05900
C1994       C  0.50497764  0.88181801  0.65517509    -0.33400
C1995       C  0.50524730  0.90511021  0.63319925     0.35900
C1996       C  0.00006051  0.89784288  0.60214810    -0.06300
C1997       C  0.99775658  0.86676726  0.59383080    -0.33300
C1998       C  0.99730055  0.84360250  0.61602081     0.35800
H1999       H  0.51095573  0.88765894  0.67857849     0.16200
O2000       O  0.51283246  0.93424102  0.64233354    -0.60800
H2001       H  0.99608145  0.86018967  0.56992074     0.16200
O2002       O  0.99483156  0.81375361  0.60637167    -0.60900
H2003       H  0.97258128  0.80967250  0.60531643     0.43200
H2004       H  0.53524978  0.93568675  0.63949956     0.43100
C2005       C  0.00313193  0.60204117  0.60215317    -0.05900
C2006       C  0.50280568  0.59363354  0.63235898    -0.33400
C2007       C  0.50277804  0.61540276  0.65587507     0.35900
C2008       C  0.00321990  0.64701927  0.64895910    -0.06300
C2009       C  0.01247623  0.65442294  0.61900365    -0.33300
C2010       C  0.01281211  0.63224621  0.59583803     0.35800
H2011       H  0.50595497  0.56977610  0.63850096     0.16200
O2012       O  0.50721055  0.60560510  0.68543847    -0.60800
H2013       H  0.01981925  0.67747951  0.61346343     0.16200
O2014       O  0.02297440  0.64039027  0.56723797    -0.60900
H2015       H  0.04513451  0.63567033  0.56733131     0.43200
H2016       H  0.48668137  0.59956616  0.69288094     0.43100
O2017       O  0.50046663  0.05103803  0.08624473    -0.87000
O2018       O  0.49949524  0.04905372  0.41226276    -0.87100
O2019       O  0.55036752  0.08704647  0.99924229    -0.88800
O2020       O  0.94857871  0.08638683  0.00122201    -0.87600
O2021       O  0.91231999  0.04856138  0.00126836    -0.87100
O2022       O  0.58770472  0.05021338  0.99961454    -0.88500
O2023       O  0.49878810  0.08651822  0.44919344    -0.87000
O2024       O  0.49997531  0.08799815  0.04883404    -0.86600
Zr2025     Zr  0.50067065  0.06207796  0.99945291     2.84300
O2026       O  0.96875210  0.03093720  0.46836607    -1.08600
O2027       O  0.53168091  0.03175356  0.03091245    -1.09300
C2028       C  0.49991221  0.07922904  0.07709976     1.06100
C2029       C  0.49919119  0.07733150  0.42101120     1.06100
C2030       C  0.57857969  0.07841619  0.99936199     1.09100
C2031       C  0.92057225  0.07693656  0.00140307     1.06900
H2032       H  0.54325000  0.04392110  0.45576482     0.32400
O2033       O  0.53059384  0.03102070  0.46847016    -1.29500
H2034       H  0.95616934  0.04387272  0.04481366     0.32100
O2035       O  0.96899687  0.03127206  0.03192698    -1.31200
O2036       O  0.50201256  0.44992327  0.41296771    -0.87000
O2037       O  0.50196079  0.45000142  0.08655674    -0.88500
O2038       O  0.58667130  0.00090306  0.44996656    -0.87000
O2039       O  0.91431238  0.99870652  0.44855685    -0.87100
O2040       O  0.91417361  0.99890854  0.05057067    -0.86800
O2041       O  0.58747103  0.00111269  0.04972846    -0.86600
O2042       O  0.55167644  0.41376225  0.00065300    -0.87000
O2043       O  0.95200612  0.41182120  0.99998707    -0.86400
O2044       O  0.58823143  0.45127354  0.00085823    -0.87500
O2045       O  0.91471383  0.44868744  0.00033799    -0.86700
O2046       O  0.54986301  0.00022218  0.41259367    -0.87100
O2047       O  0.55060470  0.00132139  0.08700629    -0.86800
O2048       O  0.95078839  0.99972337  0.08808116    -0.86400
O2049       O  0.95153889  0.99996496  0.41162264    -0.86800
O2050       O  0.50245217  0.41268233  0.45005821    -0.87100
O2051       O  0.50216092  0.41278737  0.04944516    -0.88500
Zr2052     Zr  0.50002868  0.99958863  0.43779842     2.83100
Zr2053     Zr  0.50080033  0.00076524  0.06169398     2.83500
Zr2054     Zr  0.56236102  0.00043004  0.00012693     2.84100
Zr2055     Zr  0.93884591  0.99974883  0.00067696     2.83400
Zr2056     Zr  0.50165054  0.43809534  0.99964388     2.84200
O2057       O  0.96979697  0.46853269  0.03164963    -1.09000
O2058       O  0.53110247  0.46929399  0.46876427    -1.08500
C2059       C  0.50263264  0.42169408  0.42182491     1.06100
C2060       C  0.50232724  0.42173631  0.07773001     1.08700
C2061       C  0.57799278  0.00085121  0.42166625     1.06300
C2062       C  0.92336887  0.99928773  0.42034162     1.06700
C2063       C  0.92269260  0.99924918  0.07890299     1.06200
C2064       C  0.57874122  0.00127726  0.07797593     1.05800
C2065       C  0.57969081  0.42293019  0.00140403     1.06200
C2066       C  0.92381435  0.42045689  0.00005254     1.05700
H2067       H  0.54515387  0.45657880  0.04349465     0.32400
O2068       O  0.53220485  0.46914957  0.03072877    -1.30100
H2069       H  0.95596702  0.45651963  0.45601216     0.32400
O2070       O  0.96865958  0.46927663  0.46886676    -1.31500
O2071       O  0.49885436  0.20019057  0.16291722    -0.87000
O2072       O  0.49991434  0.19989764  0.33693907    -0.87100
O2073       O  0.54936404  0.16305310  0.24964847    -0.88800
O2074       O  0.95074898  0.16266316  0.25088803    -0.87600
O2075       O  0.91355134  0.19965335  0.25042111    -0.87100
O2076       O  0.58634172  0.20013454  0.25038867    -0.88500
O2077       O  0.49984490  0.16263474  0.29980012    -0.87000
O2078       O  0.49928883  0.16312379  0.20018909    -0.86600
Zr2079     Zr  0.49983029  0.18807523  0.25025141     2.84300
O2080       O  0.96876135  0.21878080  0.28039433    -1.08600
O2081       O  0.53095440  0.21892242  0.21955268    -1.09300
C2082       C  0.49900071  0.17200919  0.17191975     1.06100
C2083       C  0.49971621  0.17165820  0.32801439     1.06100
C2084       C  0.57748546  0.17184127  0.24991740     1.09100
C2085       C  0.92255254  0.17147615  0.25134317     1.06900
H2086       H  0.54367515  0.20599823  0.29424884     0.32400
O2087       O  0.53093552  0.21875838  0.28144540    -1.29500
H2088       H  0.95687274  0.20576870  0.20526732     0.32100
O2089       O  0.96939550  0.21866979  0.21815851    -1.31200
O2090       O  0.50210073  0.29930681  0.33740807    -0.87000
O2091       O  0.50018548  0.29898547  0.16296291    -0.88500
O2092       O  0.58628707  0.25080364  0.30096539    -0.87000
O2093       O  0.91194357  0.24778468  0.29833401    -0.87100
O2094       O  0.91438876  0.25001735  0.19867863    -0.86800
O2095       O  0.58687933  0.24981152  0.20109565    -0.86600
O2096       O  0.54845754  0.33761573  0.25006561    -0.87000
O2097       O  0.94945370  0.33662379  0.25021550    -0.86400
O2098       O  0.58582748  0.30077338  0.25103450    -0.87500
O2099       O  0.91288313  0.29915923  0.24961173    -0.86700
O2100       O  0.54898280  0.25016972  0.33777607    -0.87100
O2101       O  0.55011902  0.24834383  0.16366177    -0.86800
O2102       O  0.95151861  0.25047643  0.16163661    -0.86400
O2103       O  0.94883825  0.24805832  0.33562250    -0.86800
O2104       O  0.50087402  0.33643354  0.30018242    -0.87100
O2105       O  0.49969531  0.33641355  0.19984256    -0.88500
Zr2106     Zr  0.49987441  0.24977641  0.31203540     2.83100
Zr2107     Zr  0.49993552  0.24961476  0.18857942     2.83500
Zr2108     Zr  0.56147099  0.25022453  0.25072005     2.84100
Zr2109     Zr  0.93830061  0.24952772  0.24907261     2.83400
Zr2110     Zr  0.49920903  0.31163134  0.25009168     2.84200
O2111       O  0.96918820  0.28066929  0.21848895    -1.09000
O2112       O  0.53029560  0.28107221  0.28123831    -1.08500
C2113       C  0.50226690  0.32748438  0.32841488     1.06100
C2114       C  0.50010953  0.32728964  0.17158743     1.08700
C2115       C  0.57714214  0.25056120  0.32918418     1.06300
C2116       C  0.92069180  0.24748468  0.32665653     1.06700
C2117       C  0.92331406  0.25034222  0.17045267     1.06200
C2118       C  0.57827556  0.24893385  0.17276883     1.05800
C2119       C  0.57669808  0.32902703  0.25049479     1.06200
C2120       C  0.92138081  0.32749880  0.25017053     1.05700
H2121       H  0.54334186  0.29363604  0.20661492     0.32400
O2122       O  0.53061705  0.28088975  0.21940585    -1.30100
H2123       H  0.95525663  0.29336956  0.29341869     0.32400
O2124       O  0.96820813  0.28083020  0.28060258    -1.31500
O2125       O  0.83711590  0.50064698  0.20164140    -0.87000
O2126       O  0.66378771  0.50062256  0.19978964    -0.87100
O2127       O  0.75039093  0.45180680  0.16219728    -0.88800
O2128       O  0.74989529  0.05074265  0.16333772    -0.87600
O2129       O  0.74991757  0.08789609  0.20052720    -0.87100
O2130       O  0.74936768  0.41394993  0.19863390    -0.88500
O2131       O  0.70096734  0.50093558  0.16286621    -0.87000
O2132       O  0.80056180  0.50106764  0.16400978    -0.86600
Zr2133     Zr  0.75052836  0.50064586  0.18865820     2.84300
O2134       O  0.71937960  0.03182132  0.21911645    -1.08600
O2135       O  0.78121479  0.46909341  0.21918531    -1.09300
C2136       C  0.82863728  0.50089657  0.17322439     1.06100
C2137       C  0.67275090  0.50063814  0.17161950     1.06100
C2138       C  0.74972173  0.42346706  0.17053678     1.09100
C2139       C  0.74986782  0.07897123  0.17224481     1.06900
H2140       H  0.70638801  0.45677849  0.20546067     0.32400
O2141       O  0.71911549  0.46932809  0.21848618    -1.29500
H2142       H  0.79420736  0.04459842  0.20651430     0.32100
O2143       O  0.78133204  0.03179943  0.21910381    -1.31200
O2144       O  0.66258673  0.50009530  0.29892942    -0.87000
O2145       O  0.83489750  0.49998299  0.30190814    -0.88500
O2146       O  0.69944519  0.41365153  0.24939072    -0.87000
O2147       O  0.70074995  0.08747439  0.24983676    -0.87100
O2148       O  0.80061156  0.08707158  0.25200116    -0.86800
O2149       O  0.79994788  0.41347180  0.25024143    -0.86600
O2150       O  0.74628573  0.44876312  0.33574947    -0.87000
O2151       O  0.75122755  0.05048447  0.33663514    -0.86400
O2152       O  0.74729592  0.41175512  0.29839531    -0.87500
O2153       O  0.74984222  0.08795202  0.29972365    -0.86700
O2154       O  0.66250907  0.45092422  0.24978144    -0.87100
O2155       O  0.83679901  0.45066799  0.25168772    -0.86800
O2156       O  0.83709627  0.04938415  0.25185073    -0.86400
O2157       O  0.66369853  0.05049720  0.24964419    -0.86800
O2158       O  0.69904795  0.49965014  0.33658459    -0.87100
O2159       O  0.79753763  0.49904674  0.33861071    -0.88500
Zr2160     Zr  0.68844435  0.50030811  0.24959415     2.83100
Zr2161     Zr  0.81123882  0.49992444  0.25123236     2.83500
Zr2162     Zr  0.74968469  0.43802065  0.24925546     2.84100
Zr2163     Zr  0.75040533  0.06242965  0.25023784     2.83400
Zr2164     Zr  0.74882397  0.49921794  0.31186247     2.84200
O2165       O  0.78096736  0.03144768  0.28139067    -1.09000
O2166       O  0.71850080  0.46857849  0.28032533    -1.08500
C2167       C  0.67104158  0.49990442  0.32729232     1.06100
C2168       C  0.82575280  0.49962087  0.33010522     1.08700
C2169       C  0.67129064  0.42262666  0.24981968     1.06300
C2170       C  0.67259384  0.07874820  0.24969272     1.06700
C2171       C  0.82867612  0.07772009  0.25228437     1.06200
C2172       C  0.82811906  0.42243260  0.25125005     1.05800
C2173       C  0.74598798  0.42054375  0.32668211     1.06200
C2174       C  0.75072243  0.07876026  0.32783950     1.05700
H2175       H  0.79254453  0.45543645  0.29429456     0.32400
O2176       O  0.78014985  0.46836868  0.28132548    -1.30100
H2177       H  0.70649087  0.04439571  0.29389242     0.32400
O2178       O  0.71923562  0.03162425  0.28109615    -1.31500
O2179       O  0.70086479  0.16205028  0.50186281    -0.87000
O2180       O  0.69990840  0.33653718  0.50023668    -0.87100
O2181       O  0.66345643  0.24856490  0.05029908    -0.88800
O2182       O  0.66218749  0.24958062  0.45134383    -0.87600
O2183       O  0.69894867  0.25030688  0.41398745    -0.87100
O2184       O  0.70059045  0.24940515  0.08739081    -0.88500
O2185       O  0.66286182  0.29951811  0.50047017    -0.87000
O2186       O  0.66374111  0.19911126  0.50187054    -0.86600
Zr2187     Zr  0.68819511  0.24940953  0.50070541     2.84300
O2188       O  0.71824669  0.28039302  0.46919185    -1.08600
O2189       O  0.71924151  0.21993495  0.03138231    -1.09300
C2190       C  0.67267724  0.17082940  0.50229153     1.06100
C2191       C  0.67176279  0.32783440  0.50029212     1.06100
C2192       C  0.67238190  0.24832756  0.07855725     1.09100
C2193       C  0.67090001  0.25036547  0.42304565     1.06900
H2194       H  0.70691982  0.29463144  0.04380197     0.32400
O2195       O  0.71953383  0.28177086  0.03097128    -1.29500
H2196       H  0.70559009  0.20523344  0.45682158     0.32100
O2197       O  0.71844755  0.21812210  0.46938460    -1.30800
O2198       O  0.79885805  0.33698683  0.49790130    -0.87000
O2199       O  0.79989435  0.16281266  0.49885489    -0.88500
O2200       O  0.74904756  0.30131778  0.08627265    -0.87000
O2201       O  0.74758310  0.29844037  0.41251130    -0.87100
O2202       O  0.74829624  0.20003774  0.41283608    -0.86800
O2203       O  0.75065050  0.20175485  0.08768943    -0.86600
O2204       O  0.83741732  0.25178732  0.04882175    -0.87000
O2205       O  0.83538415  0.24817018  0.44844115    -0.86400
O2206       O  0.80073163  0.25283620  0.08631630    -0.87500
O2207       O  0.79789433  0.24745639  0.41175670    -0.86700
O2208       O  0.75091834  0.33803695  0.04873038    -0.87100
O2209       O  0.74867384  0.16434849  0.05074842    -0.86800
O2210       O  0.75057783  0.16289922  0.44999389    -0.86400
O2211       O  0.74705566  0.33613820  0.44913180    -0.86800
O2212       O  0.83613921  0.30016911  0.49730506    -0.87100
O2213       O  0.83671284  0.20016798  0.49970018    -0.88500
Zr2214     Zr  0.74945793  0.31155000  0.49947948     2.83100
Zr2215     Zr  0.75024440  0.18783935  0.50015581     2.83500
Zr2216     Zr  0.75038805  0.25104694  0.06194454     2.84100
Zr2217     Zr  0.74889539  0.24929308  0.43831369     2.83400
Zr2218     Zr  0.81139486  0.25009997  0.49888218     2.84200
O2219       O  0.78049246  0.21860315  0.46860927    -1.09000
O2220       O  0.78163917  0.28124894  0.03080600    -1.08500
C2221       C  0.82707243  0.32840629  0.49729360     1.06100
C2222       C  0.82797233  0.17184025  0.49930583     1.08700
C2223       C  0.74951193  0.32944021  0.07701477     1.06300
C2224       C  0.74685666  0.32676998  0.42094951     1.06700
C2225       C  0.74938635  0.17190746  0.42177261     1.06200
C2226       C  0.74949105  0.17349831  0.07895756     1.05800
C2227       C  0.82883810  0.25283828  0.07709814     1.06200
C2228       C  0.82615820  0.24718207  0.42027262     1.05700
H2229       H  0.79360084  0.20673030  0.04419640     0.32400
O2230       O  0.78089562  0.21938250  0.03125582    -1.30100
H2231       H  0.79260386  0.29351556  0.45477007     0.32400
O2232       O  0.78022961  0.28088478  0.46801982    -1.31500
C2233       C  0.74984235  0.10299086  0.14819101    -0.05900
C2234       C  0.74086702  0.13302602  0.15568602    -0.33400
C2235       C  0.74043665  0.15614281  0.13350037     0.35900
C2236       C  0.74939995  0.14960227  0.10307601    -0.06300
C2237       C  0.75840803  0.11960259  0.09559807    -0.33300
C2238       C  0.75877171  0.09648167  0.11773139     0.35800
H2239       H  0.73369505  0.13864073  0.17880121     0.16200
O2240       O  0.73083142  0.18491363  0.14186148    -0.60800
H2241       H  0.76561669  0.11399160  0.07249182     0.16200
O2242       O  0.76817187  0.06768726  0.10922007    -0.60900
H2243       H  0.79048134  0.06734493  0.11310280     0.43200
H2244       H  0.70856646  0.18516392  0.13771449     0.43100
C2245       C  0.74836173  0.35376048  0.10062953    -0.05900
C2246       C  0.76078607  0.38273789  0.09426726    -0.33400
C2247       C  0.76093859  0.40584339  0.11651934     0.35900
C2248       C  0.74893495  0.40002920  0.14600223    -0.06300
C2249       C  0.73576992  0.37132650  0.15204705    -0.33300
C2250       C  0.73503547  0.34847885  0.12959280     0.35800
H2251       H  0.77098304  0.38740477  0.07212128     0.16200
O2252       O  0.77421190  0.43346948  0.10959540    -0.60800
H2253       H  0.72561814  0.36663273  0.17420775     0.16200
O2254       O  0.72089805  0.32121332  0.13617969    -0.60900
H2255       H  0.69963904  0.32367342  0.12871851     0.43200
H2256       H  0.75831442  0.44516674  0.09837377     0.43100
C2257       C  0.74464883  0.39637409  0.35060940    -0.05900
C2258       C  0.75391824  0.36634910  0.34346181    -0.33400
C2259       C  0.75461929  0.34348582  0.36591413     0.35900
C2260       C  0.74579297  0.35028855  0.39637391    -0.06300
C2261       C  0.73588388  0.38012384  0.40333608    -0.33300
C2262       C  0.73496429  0.40291619  0.38082409     0.35800
H2263       H  0.76138214  0.36060259  0.32047290     0.16200
O2264       O  0.76446320  0.31473173  0.35775848    -0.60800
H2265       H  0.72856754  0.38588281  0.42635595     0.16200
O2266       O  0.72452698  0.43150509  0.38877013    -0.60900
H2267       H  0.70227769  0.43105817  0.38455054     0.43200
H2268       H  0.78666093  0.31455668  0.36227017     0.43100
C2269       C  0.75074797  0.10253954  0.35189801    -0.05900
C2270       C  0.73461656  0.12995034  0.34711486    -0.33400
C2271       C  0.73368206  0.15258031  0.36979311     0.35900
C2272       C  0.74939648  0.14816091  0.39770227    -0.06300
C2273       C  0.76567092  0.12085017  0.40239616    -0.33300
C2274       C  0.76643526  0.09812751  0.37977827     0.35800
H2275       H  0.72219955  0.13362645  0.32592519     0.16200
O2276       O  0.71698959  0.17870475  0.36456387    -0.60800
H2277       H  0.77830193  0.11729366  0.42347897     0.16200
O2278       O  0.78379378  0.07236370  0.38454577    -0.60900
H2279       H  0.77121296  0.05895240  0.39783991     0.43200
H2280       H  0.69672290  0.17474136  0.37389051     0.43100
C2281       C  0.89867660  0.14739841  0.25277444    -0.05900
C2282       C  0.90517351  0.11779155  0.24193043    -0.33400
C2283       C  0.88288390  0.09483384  0.24205848     0.35900
C2284       C  0.85315989  0.10125304  0.25295447    -0.06300
C2285       C  0.84688423  0.13066178  0.26451986    -0.33300
C2286       C  0.86929725  0.15354505  0.26462822     0.35800
H2287       H  0.92753909  0.11244014  0.23277858     0.16200
O2288       O  0.89013115  0.06661789  0.23015476    -0.60800
H2289       H  0.82453948  0.13595633  0.27377812     0.16200
O2290       O  0.86254582  0.18144559  0.27751002    -0.60900
H2291       H  0.85140100  0.19293767  0.26139055     0.43200
H2292       H  0.90089567  0.05567445  0.24691370     0.43100
C2293       C  0.89721211  0.35148756  0.25107926    -0.05900
C2294       C  0.90551255  0.38238319  0.25506525    -0.33400
C2295       C  0.88353867  0.40566895  0.25550197     0.35900
C2296       C  0.85226201  0.39842016  0.25181664    -0.06300
C2297       C  0.84395750  0.36749426  0.24839932    -0.33300
C2298       C  0.86589604  0.34421758  0.24821898     0.35800
H2299       H  0.92924558  0.38874844  0.25793876     0.16200
O2300       O  0.89302703  0.43527724  0.26029190    -0.60800
H2301       H  0.82022496  0.36108772  0.24565683     0.16200
O2302       O  0.85627613  0.31452390  0.24450868    -0.60900
H2303       H  0.85062312  0.30748060  0.26537196     0.43200
H2304       H  0.90089137  0.44235070  0.24018598     0.43100
C2305       C  0.60151959  0.14770492  0.24979643    -0.05900
C2306       C  0.63242959  0.15635840  0.25008129    -0.33400
C2307       C  0.65572819  0.13444983  0.25022380     0.35900
C2308       C  0.64853975  0.10285694  0.24974159    -0.06300
C2309       C  0.61763267  0.09418707  0.24954708    -0.33300
C2310       C  0.59430638  0.11610146  0.24955071     0.35800
H2311       H  0.63881889  0.18034708  0.25032346     0.16200
O2312       O  0.68541591  0.14442927  0.25053491    -0.60800
H2313       H  0.61125420  0.07019152  0.24942788     0.16200
O2314       O  0.56458825  0.10617683  0.25005736    -0.60900
H2315       H  0.56068969  0.09770400  0.22931410     0.43200
H2316       H  0.69040892  0.14761994  0.27250182     0.43100
C2317       C  0.60055637  0.35337196  0.25036895    -0.05900
C2318       C  0.63024666  0.34637560  0.26045724    -0.33400
C2319       C  0.65326810  0.36862341  0.26071415     0.35900
C2320       C  0.64715588  0.39864858  0.25028190    -0.06300
C2321       C  0.61743296  0.40576569  0.24035352    -0.33300
C2322       C  0.59432592  0.38355280  0.24026822     0.35800
H2323       H  0.63566114  0.32357453  0.26867641     0.16200
O2324       O  0.68157367  0.36071797  0.27163768    -0.60800
H2325       H  0.61206443  0.42860671  0.23220355     0.16200
O2326       O  0.56584840  0.39168552  0.22997698    -0.60900
H2327       H  0.56603387  0.38721600  0.20766820     0.43200
H2328       H  0.68129309  0.36635857  0.29368485     0.43100
C2329       C  0.89918413  0.25075821  0.14648266    -0.05900
C2330       C  0.90578806  0.26188047  0.11697420    -0.33400
C2331       C  0.88311393  0.26333023  0.09433293     0.35900
C2332       C  0.85313717  0.25322732  0.10083367    -0.06300
C2333       C  0.84658484  0.24220531  0.13032036    -0.33300
C2334       C  0.86921499  0.24062193  0.15286017     0.35800
H2335       H  0.92851709  0.26998045  0.11149718     0.16200
O2336       O  0.89055970  0.27490702  0.06605910    -0.60800
H2337       H  0.82391197  0.23396803  0.13582717     0.16200
O2338       O  0.86174138  0.22859680  0.18092677    -0.60900
H2339       H  0.86606044  0.20632931  0.17920938     0.43200
H2340       H  0.88571030  0.29709890  0.06722797     0.43100
C2341       C  0.60263465  0.24849330  0.14892168    -0.05900
C2342       C  0.59624242  0.23688140  0.11952248    -0.33400
C2343       C  0.61877376  0.23594075  0.09670915     0.35900
C2344       C  0.64839694  0.24729664  0.10273790    -0.06300
C2345       C  0.65491458  0.25845986  0.13226233    -0.33300
C2346       C  0.63245113  0.25930943  0.15510213     0.35800
H2347       H  0.57374546  0.22801674  0.11423012     0.16200
O2348       O  0.61156655  0.22350233  0.06871954    -0.60800
H2349       H  0.67741643  0.26727400  0.13759160     0.16200
O2350       O  0.63992478  0.27127569  0.18323318    -0.60900
H2351       H  0.63518586  0.29347072  0.18176207     0.43200
H2352       H  0.61614073  0.20131207  0.07069900     0.43100
C2353       C  0.60076206  0.25077788  0.35357765    -0.05900
C2354       C  0.63013614  0.26175297  0.34688830    -0.33400
C2355       C  0.65294371  0.26229902  0.36931134     0.35900
C2356       C  0.64687329  0.25117571  0.39910388    -0.06300
C2357       C  0.61738072  0.24058638  0.40594819    -0.33300
C2358       C  0.59447925  0.24027651  0.38358854     0.35800
H2359       H  0.63543025  0.27042114  0.32422740     0.16200
O2360       O  0.68098313  0.27409812  0.36180362    -0.60800
H2361       H  0.61208106  0.23198211  0.42863440     0.16200
O2362       O  0.56617150  0.22932460  0.39137977    -0.60900
H2363       H  0.56678247  0.20711185  0.38650620     0.43200
H2364       H  0.67991510  0.29612200  0.36742063     0.43100
C2365       C  0.89662988  0.24670503  0.35075973    -0.05900
C2366       C  0.86723734  0.23560522  0.34386180    -0.33400
C2367       C  0.84418835  0.23501112  0.36621942     0.35900
C2368       C  0.85007122  0.24620632  0.39607270    -0.06300
C2369       C  0.87951108  0.25696267  0.40295579    -0.33300
C2370       C  0.90253590  0.25733749  0.38077775     0.35800
H2371       H  0.86210198  0.22709296  0.32110067     0.16200
O2372       O  0.81612721  0.22328652  0.35859357    -0.60800
H2373       H  0.88470969  0.26577757  0.42560690     0.16200
O2374       O  0.93062537  0.26874068  0.38872457    -0.60900
H2375       H  0.92942285  0.29106663  0.38457430     0.43200
H2376       H  0.81734800  0.20112140  0.36353610     0.43100
C2377       C  0.89993790  0.39626535  0.99999518    -0.05900
C2378       C  0.87022215  0.40368255  0.00959100    -0.33400
C2379       C  0.84698783  0.38170871  0.00970071     0.35900
C2380       C  0.85312689  0.35132394  0.00027581    -0.06300
C2381       C  0.88176652  0.34437708  0.49297137    -0.33300
C2382       C  0.90501997  0.36634780  0.49356819     0.35800
H2383       H  0.86485939  0.42668123  0.01733051     0.16200
O2384       O  0.81861908  0.39008767  0.02007339    -0.60800
H2385       H  0.88809902  0.32058147  0.48969491     0.16200
O2386       O  0.93456455  0.35674388  0.48948795    -0.60900
H2387       H  0.94177237  0.35075242  0.51020632     0.43200
H2388       H  0.80860710  0.40028100  0.00239773     0.43100
C2389       C  0.85080806  0.14695916  0.00270453    -0.05900
C2390       C  0.84340495  0.11673832  0.99426544    -0.33400
C2391       C  0.86564011  0.09368263  0.99385536     0.35900
C2392       C  0.89611796  0.10053203  0.00208245    -0.06300
C2393       C  0.90349806  0.13021163  0.51058272    -0.33300
C2394       C  0.88131832  0.15328375  0.51126065     0.35800
H2395       H  0.82035739  0.11095276  0.98733730     0.16200
O2396       O  0.85724196  0.06468810  0.98498731    -0.60800
H2397       H  0.92587829  0.13516144  0.51994886     0.16200
O2398       O  0.88861438  0.18102743  0.52416267    -0.60900
H2399       H  0.88305558  0.17907324  0.54612496     0.43200
H2400       H  0.86078008  0.06399090  0.96253057     0.43100
C2401       C  0.60388996  0.39915435  0.00297212    -0.05900
C2402       C  0.63418645  0.40693744  0.99583542    -0.33400
C2403       C  0.65723690  0.38475006  0.99566771     0.35900
C2404       C  0.65027571  0.35389538  0.00270958    -0.06300
C2405       C  0.61732157  0.34458788  0.50610453    -0.33300
C2406       C  0.59447938  0.36705395  0.50659527     0.35800
H2407       H  0.64007996  0.43026442  0.98971536     0.16200
O2408       O  0.68635954  0.39359745  0.98822704    -0.60800
H2409       H  0.61093096  0.32102640  0.51060685     0.16200
O2410       O  0.56509529  0.35814765  0.51283390    -0.60900
H2411       H  0.56305694  0.35970910  0.53544147     0.43200
H2412       H  0.68734384  0.39249150  0.96552483     0.43100
C2413       C  0.60227169  0.10275449  0.99897065    -0.05900
C2414       C  0.63205781  0.09573059  0.98922784    -0.33400
C2415       C  0.65480325  0.11823663  0.98856679     0.35900
C2416       C  0.64822582  0.14842637  0.99840823    -0.06300
C2417       C  0.61849853  0.15463423  0.49454124    -0.33300
C2418       C  0.59514483  0.13276125  0.49430856     0.35800
H2419       H  0.63773674  0.07275584  0.98164472     0.16200
O2420       O  0.68326144  0.11041311  0.97796511    -0.60800
H2421       H  0.61297013  0.17788311  0.48778468     0.16200
O2422       O  0.56651656  0.14161006  0.48512562    -0.60900
H2423       H  0.55696285  0.15080948  0.50359651     0.43200
H2424       H  0.68270397  0.11462036  0.95561492     0.43100
C2425       C  0.89938948  0.99906118  0.39631301    -0.05900
C2426       C  0.86632381  0.50586535  0.40733089    -0.33400
C2427       C  0.84296097  0.50590890  0.38540188     0.35900
C2428       C  0.85206649  0.99944755  0.35202238    -0.06300
C2429       C  0.88082171  0.01207622  0.34530603    -0.33300
C2430       C  0.90434367  0.01194528  0.36706230     0.35800
H2431       H  0.86044831  0.51086522  0.43094859     0.16200
O2432       O  0.81374166  0.51228943  0.39475557    -0.60800
H2433       H  0.88503360  0.02254725  0.32318105     0.16200
O2434       O  0.93153577  0.02580808  0.35993902    -0.60900
H2435       H  0.94303152  0.01040911  0.34779468     0.43200
H2436       H  0.81215490  0.53497154  0.39434758     0.43100
C2437       C  0.64778217  0.00040931  0.35166560    -0.05900
C2438       C  0.65414971  0.51003628  0.38098807    -0.33400
C2439       C  0.63196816  0.51091535  0.40400700     0.35900
C2440       C  0.60216163  0.00132524  0.39777408    -0.06300
C2441       C  0.59544190  0.99084957  0.36805699    -0.33300
C2442       C  0.61788309  0.99007821  0.34525801     0.35800
H2443       H  0.67713003  0.51733894  0.38658444     0.16200
O2444       O  0.64023876  0.52102326  0.43263580    -0.60800
H2445       H  0.57279714  0.98252351  0.36252919     0.16200
O2446       O  0.61037074  0.97849365  0.31699255    -0.60900
H2447       H  0.61467179  0.95620816  0.31838850     0.43200
H2448       H  0.63616882  0.54340036  0.43250132     0.43100
C2449       C  0.60290261  0.00154956  0.10182011    -0.05900
C2450       C  0.59602938  0.01217798  0.13144346    -0.33400
C2451       C  0.61842017  0.01319269  0.15429322     0.35900
C2452       C  0.64838950  0.00300290  0.14796161    -0.06300
C2453       C  0.65580807  0.51012680  0.11772469    -0.33300
C2454       C  0.63363309  0.51024556  0.09459895     0.35800
H2455       H  0.57326264  0.02024116  0.13689097     0.16200
O2456       O  0.61068992  0.02447368  0.18263241    -0.60800
H2457       H  0.67855549  0.51820103  0.11228295     0.16200
O2458       O  0.64146684  0.52101750  0.06612146    -0.60900
H2459       H  0.65100733  0.50333667  0.05546521     0.43200
H2460       H  0.61559158  0.04666251  0.18181443     0.43100
C2461       C  0.85271349  0.99962891  0.14886356    -0.05900
C2462       C  0.84566617  0.51029989  0.11918865    -0.33400
C2463       C  0.86779863  0.51030822  0.09599542     0.35900
C2464       C  0.89831936  0.99929731  0.10264560    -0.06300
C2465       C  0.90588364  0.99341154  0.13339692    -0.33300
C2466       C  0.88354203  0.99338035  0.15629948     0.35800
H2467       H  0.82277808  0.51789831  0.11357795     0.16200
O2468       O  0.85957221  0.52000506  0.06723325    -0.60800
H2469       H  0.92926588  0.98849365  0.13985306     0.16200
O2470       O  0.89229228  0.98702735  0.18583070    -0.60900
H2471       H  0.89024699  0.96447516  0.18790168     0.43200
H2472       H  0.86405490  0.54229167  0.06697267     0.43100
C2473       C  0.49936838  0.10116834  0.39693451    -0.05900
C2474       C  0.48712581  0.13023274  0.40339150    -0.33400
C2475       C  0.48710873  0.15336639  0.38125799     0.35900
C2476       C  0.49947523  0.14769079  0.35194057    -0.06300
C2477       C  0.01115003  0.11936115  0.34588057    -0.33300
C2478       C  0.01179248  0.09665889  0.36845878     0.35800
H2479       H  0.47710776  0.13500681  0.42561027     0.16200
O2480       O  0.47366449  0.18096188  0.38812010    -0.60800
H2481       H  0.02093023  0.11431733  0.32361236     0.16200
O2482       O  0.02496047  0.06892894  0.36161564    -0.60900
H2483       H  0.04650588  0.07079431  0.36836925     0.43200
H2484       H  0.48932235  0.19262081  0.39970169     0.43100
C2485       C  0.50328414  0.39784711  0.39765871    -0.05900
C2486       C  0.99908879  0.36780029  0.40571817    -0.33400
C2487       C  0.99873261  0.34441846  0.38381359     0.35900
C2488       C  0.50360822  0.35154071  0.35228912    -0.06300
C2489       C  0.49081677  0.38038479  0.34615519    -0.33300
C2490       C  0.49046603  0.40333667  0.36846708     0.35800
H2491       H  0.99788132  0.36141796  0.42969202     0.16200
O2492       O  0.99675047  0.31464230  0.39373749    -0.60800
H2493       H  0.48032084  0.38503197  0.32413059     0.16200
O2494       O  0.47688467  0.43084177  0.36158718    -0.60900
H2495       H  0.45530384  0.42858241  0.36806835     0.43200
H2496       H  0.01810341  0.30823230  0.39779907     0.43100
C2497       C  0.50094269  0.35114774  0.14725290    -0.05900
C2498       C  0.99646884  0.38271700  0.15649321    -0.33400
C2499       C  0.99662544  0.40607943  0.13465100     0.35900
C2500       C  0.50271188  0.39767719  0.10185371    -0.06300
C2501       C  0.49648120  0.36709609  0.09384538    -0.33300
C2502       C  0.49544369  0.34403856  0.11607626     0.35800
H2503       H  0.99505572  0.38911183  0.18046839     0.16200
O2504       O  0.99452724  0.43586620  0.14460311    -0.60800
H2505       H  0.49180687  0.36092246  0.07022796     0.16200
O2506       O  0.48871926  0.31471205  0.10690302    -0.60900
H2507       H  0.46610844  0.31370067  0.10648523     0.43200
H2508       H  0.01570030  0.44189861  0.14996431     0.43100
C2509       C  0.49930119  0.10325922  0.10103828    -0.05900
C2510       C  0.98999627  0.09615667  0.13127152    -0.33400
C2511       C  0.98951727  0.11848332  0.15417874     0.35900
C2512       C  0.49890108  0.14808609  0.14786505    -0.06300
C2513       C  0.48508241  0.15403775  0.11938623    -0.33300
C2514       C  0.48522180  0.13195136  0.09605586     0.35800
H2515       H  0.98003942  0.07393091  0.13606133     0.16200
O2516       O  0.97632408  0.11149127  0.18183136    -0.60800
H2517       H  0.47385552  0.17579924  0.11524950     0.16200
O2518       O  0.47044679  0.13820135  0.06901178    -0.60900
H2519       H  0.48497446  0.15076451  0.05694199     0.43200
H2520       H  0.95481046  0.11837904  0.17997795     0.43100
O2521       O  0.50036101  0.05081603  0.58548123    -0.87000
O2522       O  0.49888132  0.04967088  0.91260787    -0.87100
O2523       O  0.54910143  0.08653415  0.50047027    -0.88800
O2524       O  0.94901291  0.08637326  0.49949771    -0.87600
O2525       O  0.91258809  0.04865728  0.49826377    -0.87100
O2526       O  0.58647271  0.04973549  0.50118107    -0.88500
O2527       O  0.49902255  0.08696839  0.94953202    -0.87000
O2528       O  0.50036721  0.08786736  0.54819263    -0.86600
Zr2529     Zr  0.49901615  0.06157890  0.49910462     2.84300
O2530       O  0.96887793  0.03110340  0.96952332    -1.08600
O2531       O  0.53020042  0.03111180  0.53012784    -1.09300
C2532       C  0.50078493  0.07905375  0.57643879     1.06100
C2533       C  0.49822286  0.07794083  0.92130641     1.06100
C2534       C  0.57738270  0.07790949  0.50124799     1.09100
C2535       C  0.92102496  0.07705358  0.49871811     1.06900
H2536       H  0.54457152  0.04423128  0.95578081     0.32400
O2537       O  0.53193862  0.03144775  0.96863163    -1.29500
H2538       H  0.95525305  0.04320841  0.54337588     0.32100
O2539       O  0.96829526  0.03067686  0.53063731    -1.31200
O2540       O  0.50097587  0.45052003  0.91259345    -0.87000
O2541       O  0.50097934  0.45138781  0.58707306    -0.88500
O2542       O  0.58765292  0.99958736  0.95079591    -0.87000
O2543       O  0.91399958  0.00036497  0.95043736    -0.87100
O2544       O  0.91276791  0.99751262  0.54836341    -0.86800
O2545       O  0.58616187  0.00067044  0.54957052    -0.86600
O2546       O  0.54991534  0.41368584  0.49990302    -0.87000
O2547       O  0.95021690  0.41315469  0.49863085    -0.86400
O2548       O  0.58678775  0.45089141  0.50000268    -0.87500
O2549       O  0.91306009  0.45004084  0.49997624    -0.86700
O2550       O  0.55101585  0.00039100  0.91336253    -0.87100
O2551       O  0.54938278  0.00081480  0.58682526    -0.86800
O2552       O  0.94923770  0.99820042  0.58611170    -0.86400
O2553       O  0.95104230  0.00017277  0.91343075    -0.86800
O2554       O  0.50271734  0.41328913  0.94959993    -0.87100
O2555       O  0.50137405  0.41406066  0.55014000    -0.88500
Zr2556     Zr  0.50102127  0.00023887  0.93801302     2.83100
Zr2557     Zr  0.49978593  0.00027155  0.56132210     2.83500
Zr2558     Zr  0.56139747  0.00010303  0.49962686     2.84100
Zr2559     Zr  0.93853409  0.99912672  0.49897310     2.83400
Zr2560     Zr  0.50034761  0.43831955  0.49977218     2.84200
O2561       O  0.96903157  0.46883683  0.53127585    -1.09000
O2562       O  0.53200170  0.46907544  0.96835887    -1.08500
C2563       C  0.50220626  0.42232241  0.92138230     1.06100
C2564       C  0.50163472  0.42313492  0.57839458     1.08700
C2565       C  0.57911098  0.99984684  0.92251183     1.06300
C2566       C  0.92287774  0.00034430  0.92212251     1.06700
C2567       C  0.92115652  0.99740730  0.57676504     1.06200
C2568       C  0.57753324  0.00094614  0.57787238     1.05800
C2569       C  0.57798602  0.42252593  0.50020638     1.06200
C2570       C  0.92199541  0.42180872  0.49892272     1.05700
H2571       H  0.54388446  0.45717855  0.54346589     0.32400
O2572       O  0.53095176  0.46968400  0.53061854    -1.30100
H2573       H  0.95729630  0.45545672  0.95637166     0.32400
O2574       O  0.96986540  0.46828743  0.96928137    -1.31500
O2575       O  0.50085810  0.20053283  0.66229367    -0.87000
O2576       O  0.49735303  0.20103966  0.83679312    -0.87100
O2577       O  0.54787363  0.16177957  0.74930575    -0.88800
O2578       O  0.94888267  0.16395559  0.75045695    -0.87600
O2579       O  0.91222697  0.20144357  0.74989309    -0.87100
O2580       O  0.58536807  0.19845833  0.74879691    -0.88500
O2581       O  0.49623169  0.16378711  0.79979720    -0.87000
O2582       O  0.49914228  0.16346289  0.69949163    -0.86600
Zr2583     Zr  0.49881051  0.18829694  0.74963952     2.84300
O2584       O  0.96817102  0.21936083  0.78132591    -1.08600
O2585       O  0.53052187  0.21869076  0.71913968    -1.09300
C2586       C  0.50008079  0.17231682  0.67122390     1.06100
C2587       C  0.49605812  0.17282157  0.82806249     1.06100
C2588       C  0.57614402  0.17026822  0.74869519     1.09100
C2589       C  0.92077307  0.17310179  0.75013751     1.06900
H2590       H  0.54268151  0.20534235  0.79393741     0.32400
O2591       O  0.53031202  0.21836991  0.78103771    -1.29500
H2592       H  0.95582718  0.20674007  0.70579248     0.32100
O2593       O  0.96863028  0.21933621  0.71870872    -1.31200
O2594       O  0.50077321  0.29987875  0.83647248    -0.87000
O2595       O  0.50184392  0.29980247  0.66279176    -0.88500
O2596       O  0.58648433  0.24957236  0.80032987    -0.87000
O2597       O  0.91300756  0.25157776  0.79975496    -0.87100
O2598       O  0.91384471  0.25345394  0.69981609    -0.86800
O2599       O  0.58726288  0.24856457  0.70100471    -0.86600
O2600       O  0.55071539  0.33637826  0.75052153    -0.87000
O2601       O  0.94995692  0.33760394  0.74869997    -0.86400
O2602       O  0.58740438  0.29890124  0.75075781    -0.87500
O2603       O  0.91299301  0.30035426  0.75044468    -0.86700
O2604       O  0.54915949  0.24981776  0.83711701    -0.87100
O2605       O  0.55072800  0.24843751  0.66336515    -0.86800
O2606       O  0.95086526  0.25208054  0.66276023    -0.86400
O2607       O  0.95001929  0.25127252  0.83680424    -0.86800
O2608       O  0.50172268  0.33723692  0.79960841    -0.87100
O2609       O  0.50199913  0.33705175  0.69981282    -0.88500
Zr2610     Zr  0.49974074  0.25030032  0.81130343     2.83100
Zr2611     Zr  0.50056636  0.25009460  0.68790710     2.83500
Zr2612     Zr  0.56156536  0.24918258  0.75035162     2.84100
Zr2613     Zr  0.93824535  0.25071913  0.74990422     2.83400
Zr2614     Zr  0.50073667  0.31209292  0.74971325     2.84200
O2615       O  0.96938266  0.28110375  0.71886886    -1.09000
O2616       O  0.53114657  0.28091459  0.78091317    -1.08500
C2617       C  0.50150483  0.32812877  0.82780377     1.06100
C2618       C  0.50230470  0.32807928  0.67155279     1.08700
C2619       C  0.57739305  0.24978184  0.82852511     1.06300
C2620       C  0.92187833  0.25180294  0.82804852     1.06700
C2621       C  0.92268763  0.25367193  0.67156620     1.06200
C2622       C  0.57879795  0.24830217  0.67265134     1.05800
C2623       C  0.57878504  0.32730023  0.75065603     1.06200
C2624       C  0.92186431  0.32855867  0.74958545     1.05700
H2625       H  0.54467234  0.29324603  0.70639007     0.32400
O2626       O  0.53159488  0.28072396  0.71904129    -1.30100
H2627       H  0.95620571  0.29457702  0.79368622     0.32400
O2628       O  0.96887829  0.28168687  0.78094057    -1.31500
O2629       O  0.83732925  0.50090715  0.70182096    -0.87000
O2630       O  0.66354895  0.49979651  0.70055111    -0.87100
O2631       O  0.75215034  0.45082506  0.66301946    -0.88800
O2632       O  0.75095328  0.04917529  0.66269031    -0.87600
O2633       O  0.75074948  0.08634241  0.69990691    -0.87100
O2634       O  0.75224033  0.41346391  0.69992061    -0.88500
O2635       O  0.70035027  0.50039249  0.66332939    -0.87000
O2636       O  0.80060935  0.50127670  0.66437653    -0.86600
Zr2637     Zr  0.75032565  0.50024658  0.68872546     2.84300
O2638       O  0.71881175  0.03052809  0.71900853    -1.08600
O2639       O  0.78132408  0.46919385  0.71945510    -1.09300
C2640       C  0.82874176  0.50142406  0.67351890     1.06100
C2641       C  0.67214200  0.50020422  0.67225981     1.06100
C2642       C  0.75272434  0.42254400  0.67168827     1.09100
C2643       C  0.75142484  0.07741481  0.67161254     1.06900
H2644       H  0.70700723  0.45577401  0.70613913     0.32400
O2645       O  0.71958377  0.46860815  0.71903966    -1.29500
H2646       H  0.79351435  0.04332600  0.70608109     0.32100
O2647       O  0.78070045  0.03064791  0.71884998    -1.31200
O2648       O  0.66343475  0.49847034  0.79958200    -0.87000
O2649       O  0.83637848  0.50098867  0.80103521    -0.88500
O2650       O  0.70161162  0.41218321  0.75054226    -0.87000
O2651       O  0.69978247  0.08646980  0.74803871    -0.87100
O2652       O  0.79923702  0.08709987  0.75099712    -0.86800
O2653       O  0.80032449  0.41277586  0.75023674    -0.86600
O2654       O  0.74982899  0.45008795  0.83719096    -0.87000
O2655       O  0.74905181  0.04861294  0.83702671    -0.86400
O2656       O  0.74995078  0.41298035  0.80005589    -0.87500
O2657       O  0.74851487  0.08602980  0.80023020    -0.86700
O2658       O  0.66440129  0.44912448  0.75101145    -0.87100
O2659       O  0.83710618  0.45022635  0.74932770    -0.86800
O2660       O  0.83630020  0.04997252  0.75012968    -0.86400
O2661       O  0.66307858  0.04906810  0.74962639    -0.86800
O2662       O  0.70016408  0.49751918  0.83693952    -0.87100
O2663       O  0.79929831  0.50095336  0.83797429    -0.88500
Zr2664     Zr  0.68879832  0.49950093  0.75013951     2.83100
Zr2665     Zr  0.81157770  0.49992051  0.75106744     2.83500
Zr2666     Zr  0.75074529  0.43802992  0.75017998     2.84100
Zr2667     Zr  0.74970826  0.06141793  0.74998109     2.83400
Zr2668     Zr  0.74992361  0.49958637  0.81211967     2.84200
O2669       O  0.78073964  0.03058497  0.78100507    -1.09000
O2670       O  0.71948877  0.46854563  0.78106795    -1.08500
C2671       C  0.67207088  0.49744712  0.82784762     1.06100
C2672       C  0.82749350  0.50138912  0.82928555     1.08700
C2673       C  0.67343631  0.42085552  0.75104590     1.06300
C2674       C  0.67167160  0.07740766  0.74834124     1.06700
C2675       C  0.82743413  0.07825148  0.75080675     1.06200
C2676       C  0.82834120  0.42194355  0.74942410     1.05800
C2677       C  0.74975536  0.42188110  0.82833881     1.06200
C2678       C  0.74826163  0.07691222  0.82845553     1.05700
H2679       H  0.79416938  0.45578494  0.79474496     0.32400
O2680       O  0.78138458  0.46847974  0.78191719    -1.30100
H2681       H  0.70619598  0.04302924  0.79390683     0.32400
O2682       O  0.71909235  0.03038209  0.78114173    -1.31500
O2683       O  0.70015367  0.16363662  0.00009312    -0.87000
O2684       O  0.70197062  0.33774242  0.00046049    -0.87100
O2685       O  0.66368620  0.24815141  0.55055128    -0.88800
O2686       O  0.66299828  0.25163480  0.95048593    -0.87600
O2687       O  0.69994328  0.25073182  0.91328827    -0.87100
O2688       O  0.70099423  0.24871613  0.58742403    -0.88500
O2689       O  0.66439223  0.30126085  0.00183137    -0.87000
O2690       O  0.66315553  0.20083761  0.99957041    -0.86600
Zr2691     Zr  0.68837458  0.25074513  0.00035613     2.84300
O2692       O  0.71915889  0.28132502  0.96897767    -1.08600
O2693       O  0.71955617  0.21869316  0.53142249    -1.09300
C2694       C  0.67206443  0.17254344  0.99939795     1.06100
C2695       C  0.67376072  0.32938912  0.00155311     1.06100
C2696       C  0.67273636  0.24787796  0.57870537     1.09100
C2697       C  0.67182318  0.25145871  0.92217733     1.06900
H2698       H  0.70644994  0.29364591  0.54426942     0.32400
O2699       O  0.71904274  0.28089300  0.53129718    -1.29500
H2700       H  0.70574078  0.20658278  0.95668907     0.32100
O2701       O  0.71863608  0.21924386  0.96943157    -1.30800
O2702       O  0.80082467  0.33644546  0.99999982    -0.87000
O2703       O  0.79882630  0.16248856  0.00128704    -0.88500
O2704       O  0.75146719  0.29971711  0.58663881    -0.87000
O2705       O  0.74929842  0.29874459  0.91269325    -0.87100
O2706       O  0.74827661  0.20000378  0.91334307    -0.86800
O2707       O  0.75219539  0.20033706  0.58685271    -0.86600
O2708       O  0.83697525  0.25371127  0.54843871    -0.87000
O2709       O  0.83636161  0.24997159  0.94967939    -0.86400
O2710       O  0.80075971  0.25315786  0.58630012    -0.87500
O2711       O  0.79903712  0.24983533  0.91293041    -0.86700
O2712       O  0.75162687  0.33685240  0.54952537    -0.87100
O2713       O  0.75199133  0.16278867  0.55004508    -0.86800
O2714       O  0.74854762  0.16300383  0.95049886    -0.86400
O2715       O  0.75040079  0.33614702  0.94950043    -0.86800
O2716       O  0.83758935  0.29908024  0.99949568    -0.87100
O2717       O  0.83601189  0.19940924  0.00087465    -0.88500
Zr2718     Zr  0.75088242  0.31177349  0.99959856     2.83100
Zr2719     Zr  0.74968876  0.18857460  0.00041108     2.83500
Zr2720     Zr  0.75066852  0.25003537  0.56165996     2.84100
Zr2721     Zr  0.74962446  0.24963047  0.93843311     2.83400
Zr2722     Zr  0.81163407  0.24965838  0.99961142     2.84200
O2723       O  0.78087361  0.21838735  0.96874927    -1.09000
O2724       O  0.78077453  0.28092359  0.53008986    -1.08500
C2725       C  0.82892673  0.32741541  0.99995447     1.06100
C2726       C  0.82701010  0.17120726  0.00159467     1.08700
C2727       C  0.75193940  0.32793365  0.57782952     1.06300
C2728       C  0.74978902  0.32700654  0.92131322     1.06700
C2729       C  0.74788074  0.17180028  0.92216700     1.06200
C2730       C  0.75242137  0.17200528  0.57822944     1.05800
C2731       C  0.82875704  0.25434364  0.57689116     1.06200
C2732       C  0.82725884  0.25029730  0.92148390     1.05700
H2733       H  0.79466177  0.20659900  0.54341876     0.32400
O2734       O  0.78152738  0.21902163  0.53068755    -1.30100
H2735       H  0.79387464  0.29332744  0.95559815     0.32400
O2736       O  0.78117922  0.28066678  0.96850006    -1.31500
C2737       C  0.75281716  0.10153536  0.64765244    -0.05900
C2738       C  0.74412729  0.13165922  0.65505197    -0.33400
C2739       C  0.74413571  0.15479109  0.63290500     0.35900
C2740       C  0.75317986  0.14821078  0.60251364    -0.06300
C2741       C  0.76259497  0.11825125  0.59524767    -0.33300
C2742       C  0.76264701  0.09510854  0.61744701     0.35800
H2743       H  0.73659427  0.13732228  0.67803715     0.16200
O2744       O  0.73467574  0.18361387  0.64124921    -0.60800
H2745       H  0.77010684  0.11265446  0.57223588     0.16200
O2746       O  0.77244447  0.06636198  0.60924242    -0.60900
H2747       H  0.79471503  0.06632506  0.61335759     0.43200
H2748       H  0.71217229  0.18343656  0.63872789     0.43100
C2749       C  0.75275375  0.35188431  0.60209963    -0.05900
C2750       C  0.76078997  0.38212546  0.59448211    -0.33400
C2751       C  0.76114090  0.40531721  0.61671524     0.35900
C2752       C  0.75348663  0.39854670  0.64747175    -0.06300
C2753       C  0.74594316  0.36821313  0.65513689    -0.33300
C2754       C  0.74542670  0.34510355  0.63293739     0.35800
H2755       H  0.76696813  0.38794637  0.57114505     0.16200
O2756       O  0.76980763  0.43429054  0.60814400    -0.60800
H2757       H  0.73985908  0.36228208  0.67846937     0.16200
O2758       O  0.73746988  0.31601987  0.64182500    -0.60900
H2759       H  0.71495147  0.31512573  0.63965519     0.43200
H2760       H  0.75121383  0.44376614  0.59924756     0.43100
C2761       C  0.74962109  0.39783166  0.85237858    -0.05900
C2762       C  0.74916042  0.36678410  0.84368700    -0.33400
C2763       C  0.74931089  0.34348203  0.86560627     0.35900
C2764       C  0.74977159  0.35090119  0.89717363    -0.06300
C2765       C  0.75025655  0.38192622  0.90584525    -0.33300
C2766       C  0.75001882  0.40520600  0.88396277     0.35800
H2767       H  0.74870289  0.36031049  0.81969541     0.16200
O2768       O  0.74858626  0.31362130  0.85569244    -0.60800
H2769       H  0.75068557  0.38844146  0.92982775     0.16200
O2770       O  0.75051037  0.43504040  0.89396177    -0.60900
H2771       H  0.72882518  0.44047946  0.89764472     0.43200
H2772       H  0.77026703  0.30779237  0.85263890     0.43100
C2773       C  0.74686037  0.10084234  0.85276207    -0.05900
C2774       C  0.74599114  0.13191701  0.84432004    -0.33400
C2775       C  0.74553660  0.15514723  0.86639698     0.35900
C2776       C  0.74661687  0.14772467  0.89797237    -0.06300
C2777       C  0.74655804  0.11663248  0.90643444    -0.33300
C2778       C  0.74633189  0.09337975  0.88432797     0.35800
H2779       H  0.74574764  0.13849687  0.82036968     0.16200
O2780       O  0.74452281  0.18500488  0.85657378    -0.60800
H2781       H  0.74677618  0.11009259  0.93039536     0.16200
O2782       O  0.74604412  0.06348675  0.89408271    -0.60900
H2783       H  0.72414096  0.05819141  0.89634074     0.43200
H2784       H  0.72250360  0.18969880  0.85399071     0.43100
C2785       C  0.89658613  0.14914944  0.75017268    -0.05900
C2786       C  0.90388326  0.11917886  0.75946923    -0.33400
C2787       C  0.88173030  0.09608379  0.76014081     0.35900
C2788       C  0.85141043  0.10245383  0.75105228    -0.06300
C2789       C  0.84406326  0.13246310  0.74181633    -0.33300
C2790       C  0.86624920  0.15558104  0.74112148     0.35800
H2791       H  0.92687420  0.11356557  0.76673263     0.16200
O2792       O  0.89007152  0.06744327  0.77007608    -0.60800
H2793       H  0.82106610  0.13802765  0.73453378     0.16200
O2794       O  0.85795200  0.18423584  0.73115784    -0.60900
H2795       H  0.86194349  0.18415603  0.70876464     0.43200
H2796       H  0.88682055  0.06776048  0.79258782     0.43100
C2797       C  0.89788437  0.35237480  0.74966849    -0.05900
C2798       C  0.90146200  0.37879783  0.73165913    -0.33400
C2799       C  0.87878448  0.40142531  0.73099816     0.35900
C2800       C  0.85225449  0.39808570  0.74896897    -0.06300
C2801       C  0.84862661  0.37161375  0.76687229    -0.33300
C2802       C  0.87121644  0.34894365  0.76745176     0.35800
H2803       H  0.92164923  0.38163277  0.71758915     0.16200
O2804       O  0.88253237  0.42641815  0.71229085    -0.60800
H2805       H  0.82843506  0.36875679  0.78093638     0.16200
O2806       O  0.86718919  0.32377709  0.78587407    -0.60900
H2807       H  0.87816158  0.32864039  0.80518274     0.43200
H2808       H  0.87177899  0.42111435  0.69297144     0.43100
C2809       C  0.60003974  0.14596625  0.74780991    -0.05900
C2810       C  0.62921948  0.15295956  0.73633085    -0.33400
C2811       C  0.65263103  0.13102146  0.73608881     0.35900
C2812       C  0.64725054  0.10120739  0.74750313    -0.06300
C2813       C  0.61789953  0.09405890  0.75844473    -0.33300
C2814       C  0.59445672  0.11595508  0.75855789     0.35800
H2815       H  0.63398969  0.17559516  0.72730931     0.16200
O2816       O  0.68034151  0.13877432  0.72367347    -0.60800
H2817       H  0.61309789  0.07144010  0.76748554     0.16200
O2818       O  0.56660184  0.10804183  0.77052871    -0.60900
H2819       H  0.55584621  0.09710909  0.75374846     0.43200
H2820       H  0.69121051  0.15015209  0.74007901     0.43100
C2821       C  0.60292236  0.35134377  0.75062963    -0.05900
C2822       C  0.63316096  0.34355608  0.75819468    -0.33400
C2823       C  0.65628062  0.36573976  0.75864681     0.35900
C2824       C  0.64954202  0.39660057  0.75128835    -0.06300
C2825       C  0.61933271  0.40433124  0.74368408    -0.33300
C2826       C  0.59629262  0.38216733  0.74305533     0.35800
H2827       H  0.63900018  0.32015494  0.76412292     0.16200
O2828       O  0.68532539  0.35683076  0.76638736    -0.60800
H2829       H  0.61345521  0.42769380  0.73764030     0.16200
O2830       O  0.56742623  0.39106052  0.73466935    -0.60900
H2831       H  0.56649973  0.38794187  0.71214609     0.43200
H2832       H  0.68636117  0.35875390  0.78903465     0.43100
C2833       C  0.89865695  0.25556297  0.64737406    -0.05900
C2834       C  0.90641321  0.25000709  0.61658324    -0.33400
C2835       C  0.88426960  0.25036449  0.59340564     0.35900
C2836       C  0.85329831  0.25606446  0.60061379    -0.06300
C2837       C  0.84569809  0.26269154  0.63125249    -0.33300
C2838       C  0.86787981  0.26245054  0.65444165     0.35800
H2839       H  0.92977637  0.24480834  0.61030229     0.16200
O2840       O  0.89319623  0.24388774  0.56396119    -0.60800
H2841       H  0.82231465  0.26787119  0.63748198     0.16200
O2842       O  0.85912697  0.26948122  0.68383524    -0.60900
H2843       H  0.85016792  0.25032163  0.69212009     0.43200
H2844       H  0.89990513  0.26379293  0.55529774     0.43100
C2845       C  0.60316117  0.24785130  0.64893985    -0.05900
C2846       C  0.59626178  0.23790766  0.61907261    -0.33400
C2847       C  0.61867530  0.23712678  0.59623862     0.35900
C2848       C  0.64875692  0.24695615  0.60278333    -0.06300
C2849       C  0.65573302  0.25657874  0.63272131    -0.33300
C2850       C  0.63335238  0.25722731  0.65559437     0.35800
H2851       H  0.57342095  0.23024819  0.61338006     0.16200
O2852       O  0.61082569  0.22641829  0.56769873    -0.60800
H2853       H  0.67855812  0.26427692  0.63840142     0.16200
O2854       O  0.64130585  0.26755950  0.68423426    -0.60900
H2855       H  0.63711236  0.28991237  0.68392898     0.43200
H2856       H  0.61563476  0.20419002  0.56809909     0.43100
C2857       C  0.60130394  0.25023492  0.85274827    -0.05900
C2858       C  0.63091086  0.26036504  0.84552200    -0.33400
C2859       C  0.65393868  0.26121886  0.86778241     0.35900
C2860       C  0.64777034  0.25166045  0.89810630    -0.06300
C2861       C  0.61813450  0.24169616  0.90536277    -0.33300
C2862       C  0.59514980  0.24071977  0.88306827     0.35800
H2863       H  0.63627336  0.26802131  0.82251408     0.16200
O2864       O  0.68232008  0.27161689  0.85952960    -0.60800
H2865       H  0.61279664  0.23395909  0.92834699     0.16200
O2866       O  0.56692378  0.22984174  0.89117899    -0.60900
H2867       H  0.56780273  0.20746947  0.88716786     0.43200
H2868       H  0.68222642  0.29382323  0.86446551     0.43100
C2869       C  0.89789905  0.25262756  0.85222094    -0.05900
C2870       C  0.86693381  0.25288372  0.84368340    -0.33400
C2871       C  0.84374775  0.25246022  0.86571355     0.35900
C2872       C  0.85113754  0.25154599  0.89726663    -0.06300
C2873       C  0.88208838  0.25213517  0.90580942    -0.33300
C2874       C  0.90525508  0.25301102  0.88380877     0.35800
H2875       H  0.86043249  0.25325475  0.81971194     0.16200
O2876       O  0.81399005  0.25334559  0.85592865    -0.60800
H2877       H  0.88862076  0.25197312  0.92977701     0.16200
O2878       O  0.93498389  0.25389074  0.89368411    -0.60900
H2879       H  0.93909709  0.27579875  0.89821322     0.43200
H2880       H  0.80847576  0.23170174  0.85166583     0.43100
C2881       C  0.89790552  0.39768769  0.49784833    -0.05900
C2882       C  0.86703913  0.40608190  0.50102633    -0.33400
C2883       C  0.84376970  0.38412018  0.50030444     0.35900
C2884       C  0.85096802  0.35270196  0.49670671    -0.06300
C2885       C  0.88292583  0.34380925  0.99087694    -0.33300
C2886       C  0.90615414  0.36586835  0.99061006     0.35800
H2887       H  0.86069194  0.42987912  0.50426788     0.16200
O2888       O  0.81416776  0.39378325  0.50386631    -0.60800
H2889       H  0.88826134  0.32078221  0.98320263     0.16200
O2890       O  0.93446593  0.35764530  0.97993570    -0.60900
H2891       H  0.94499085  0.34818386  0.99771524     0.43200
H2892       H  0.80715850  0.39927104  0.48293932     0.43100
C2893       C  0.85187468  0.14768167  0.49939107    -0.05900
C2894       C  0.84516771  0.11836423  0.48770238    -0.33400
C2895       C  0.86730565  0.09518390  0.48724611     0.35900
C2896       C  0.89688564  0.10096199  0.49874724    -0.06300
C2897       C  0.90330030  0.13057112  0.01121410    -0.33300
C2898       C  0.88102907  0.15351543  0.01189734     0.35800
H2899       H  0.82274318  0.11342742  0.47843226     0.16200
O2900       O  0.85977909  0.06713632  0.47513504    -0.60800
H2901       H  0.92631079  0.13637366  0.01824526     0.16200
O2902       O  0.88917575  0.18221776  0.02185010    -0.60900
H2903       H  0.88481941  0.18229728  0.04417401     0.43200
H2904       H  0.86591766  0.06817064  0.45326760     0.43100
C2905       C  0.60180359  0.39814227  0.50080188    -0.05900
C2906       C  0.63241929  0.40583729  0.49529321    -0.33400
C2907       C  0.65526089  0.38340011  0.49489808     0.35900
C2908       C  0.64793604  0.35226725  0.50034343    -0.06300
C2909       C  0.62018656  0.34636802  0.01088804    -0.33300
C2910       C  0.59725095  0.36861687  0.01141424     0.35800
H2911       H  0.63882457  0.42940145  0.49083005     0.16200
O2912       O  0.68467944  0.39239054  0.48905138    -0.60800
H2913       H  0.61427912  0.32308008  0.01713921     0.16200
O2914       O  0.56846358  0.36010307  0.02036815    -0.60900
H2915       H  0.56772754  0.36415935  0.04275034     0.43200
H2916       H  0.68643681  0.39257947  0.46637724     0.43100
C2917       C  0.60144428  0.10201272  0.50216527    -0.05900
C2918       C  0.63146510  0.09415933  0.51068461    -0.33400
C2919       C  0.65481465  0.11611905  0.51112035     0.35900
C2920       C  0.64854023  0.14679424  0.50280996    -0.06300
C2921       C  0.61835293  0.15553854  0.00763195    -0.33300
C2922       C  0.59557338  0.13313744  0.00805927     0.35800
H2923       H  0.63697552  0.07085807  0.51729223     0.16200
O2924       O  0.68337558  0.10744954  0.52073947    -0.60800
H2925       H  0.61261065  0.17852482  0.01510332     0.16200
O2926       O  0.56692396  0.14129453  0.01780577    -0.60900
H2927       H  0.56665737  0.13675172  0.04008674     0.43200
H2928       H  0.69311895  0.09788994  0.50255766     0.43100
C2929       C  0.89885480  0.00048822  0.89783382    -0.05900
C2930       C  0.86815449  0.50453861  0.90669282    -0.33400
C2931       C  0.84477039  0.50513450  0.88482357     0.35900
C2932       C  0.85196686  0.00082011  0.85258239    -0.06300
C2933       C  0.88281277  0.99752109  0.84424866    -0.33300
C2934       C  0.90603174  0.99730467  0.86634499     0.35800
H2935       H  0.86194278  0.50665648  0.93064775     0.16200
O2936       O  0.81526774  0.50870253  0.89473639    -0.60800
H2937       H  0.88917155  0.99486526  0.82038455     0.16200
O2938       O  0.93565628  0.99414830  0.85664261    -0.60900
H2939       H  0.93906433  0.97172026  0.85496224     0.43200
H2940       H  0.81199243  0.53119122  0.89575575     0.43100
C2941       C  0.64848046  0.99825347  0.85213043    -0.05900
C2942       C  0.65591163  0.50212155  0.88248407    -0.33400
C2943       C  0.63374879  0.50293971  0.90546466     0.35900
C2944       C  0.60335053  0.99943852  0.89870357    -0.06300
C2945       C  0.59505406  0.99751746  0.86764238    -0.33300
C2946       C  0.61711175  0.99671821  0.84456030     0.35800
H2947       H  0.67943573  0.50642824  0.88885265     0.16200
O2948       O  0.64294465  0.50883781  0.93497497    -0.60800
H2949       H  0.57124975  0.99637623  0.86098217     0.16200
O2950       O  0.60749124  0.99455713  0.81468956    -0.60900
H2951       H  0.60503394  0.97227890  0.81079984     0.43200
H2952       H  0.64189258  0.53145444  0.93718043     0.43100
C2953       C  0.60173570  0.00132137  0.60192647    -0.05900
C2954       C  0.59342607  0.00097610  0.63307520    -0.33400
C2955       C  0.61550236  0.00120507  0.65629060     0.35900
C2956       C  0.64693215  0.00150612  0.64875948    -0.06300
C2957       C  0.65588825  0.50340595  0.61720314    -0.33300
C2958       C  0.63371662  0.50382861  0.59404630     0.35800
H2959       H  0.56959897  0.00046746  0.63969636     0.16200
O2960       O  0.60585898  0.00058531  0.68621456    -0.60800
H2961       H  0.67964287  0.50540214  0.61061187     0.16200
O2962       O  0.64319340  0.50703167  0.56424093    -0.60900
H2963       H  0.64823928  0.48597022  0.55726590     0.43200
H2964       H  0.60260232  0.02237350  0.69191335     0.43100
C2965       C  0.85132985  0.99616837  0.64709345    -0.05900
C2966       C  0.84532821  0.49471412  0.61917797    -0.33400
C2967       C  0.86747997  0.49416298  0.59611340     0.35900
C2968       C  0.89667589  0.99644554  0.60046951    -0.06300
C2969       C  0.90366074  0.98663074  0.63036271    -0.33300
C2970       C  0.88138686  0.98620194  0.65341097     0.35800
H2971       H  0.82203899  0.48895528  0.61309986     0.16200
O2972       O  0.85872365  0.48592571  0.56704132    -0.60800
H2973       H  0.92654539  0.97903531  0.63597647     0.16200
O2974       O  0.88939691  0.97589401  0.68201863    -0.60900
H2975       H  0.88449525  0.95369135  0.68194238     0.43200
H2976       H  0.85045840  0.50493228  0.55770536     0.43100
C2977       C  0.49646423  0.10194500  0.89718720    -0.05900
C2978       C  0.49483100  0.13298914  0.90579403    -0.33400
C2979       C  0.49395965  0.15626852  0.88380508     0.35900
C2980       C  0.49491833  0.14885881  0.85223106    -0.06300
C2981       C  0.00507304  0.11797356  0.84503016    -0.33300
C2982       C  0.00537099  0.09503887  0.86739095     0.35800
H2983       H  0.49429363  0.13948797  0.92977682     0.16200
O2984       O  0.49163285  0.18608360  0.89363105    -0.60800
H2985       H  0.01070399  0.11173262  0.82164736     0.16200
O2986       O  0.01300603  0.06576889  0.85872617    -0.60900
H2987       H  0.03542496  0.06437993  0.86163963     0.43200
H2988       H  0.51271271  0.19226647  0.89912439     0.43100
C2989       C  0.50271946  0.39840042  0.89730882    -0.05900
C2990       C  0.99793652  0.36711241  0.90629397    -0.33400
C2991       C  0.99751380  0.34405984  0.88406460     0.35900
C2992       C  0.50211295  0.35193493  0.85205171    -0.06300
C2993       C  0.51135461  0.38188516  0.84469883    -0.33300
C2994       C  0.51159987  0.40501434  0.86690341     0.35800
H2995       H  0.99463077  0.36064006  0.93004462     0.16200
O2996       O  0.99293820  0.31438767  0.89340626    -0.60800
H2997       H  0.51854182  0.38751360  0.82160740     0.16200
O2998       O  0.52136843  0.43375251  0.85872137    -0.60900
H2999       H  0.50328219  0.44387359  0.84948826     0.43200
H3000       H  0.01339842  0.30679570  0.89954322     0.43100
C3001       C  0.50315612  0.35217970  0.64746646    -0.05900
C3002       C  0.00716359  0.38162652  0.65430803    -0.33400
C3003       C  0.00765763  0.40455620  0.63196746     0.35900
C3004       C  0.50279124  0.39919053  0.60257531    -0.06300
C3005       C  0.50308118  0.36814465  0.59395017    -0.33300
C3006       C  0.50323408  0.34484213  0.61587607     0.35800
H3007       H  0.01417781  0.38747042  0.67741851     0.16200
O3008       O  0.01724021  0.43334317  0.64024665    -0.60800
H3009       H  0.50294496  0.36163249  0.56996498     0.16200
O3010       O  0.50369468  0.31499879  0.60591606    -0.60900
H3011       H  0.48207454  0.30980708  0.60158279     0.43200
H3012       H  0.03968385  0.43315001  0.63726008     0.43100
C3013       C  0.50129729  0.10307608  0.60049458    -0.05900
C3014       C  0.99194761  0.09482905  0.63199490    -0.33400
C3015       C  0.99168431  0.11708468  0.65507760     0.35900
C3016       C  0.50034439  0.14830138  0.64711135    -0.06300
C3017       C  0.51235861  0.15496713  0.61795784    -0.33300
C3018       C  0.51317100  0.13263408  0.59487970     0.35800
H3019       H  0.98461066  0.07180031  0.63765606     0.16200
O3020       O  0.98233459  0.10874245  0.68390607    -0.60800
H3021       H  0.52167395  0.17745845  0.61311625     0.16200
O3022       O  0.52597785  0.13991728  0.56711347    -0.60900
H3023       H  0.54776840  0.13395616  0.56891939     0.43200
H3024       H  0.95993061  0.11209592  0.68404973     0.43100
O3025       O  0.50291726  0.54986575  0.08651665    -0.87000
O3026       O  0.49788323  0.54952218  0.41269278    -0.87100
O3027       O  0.54922102  0.58731796  0.99941961    -0.88800
O3028       O  0.94991467  0.58611594  0.99991232    -0.87600
O3029       O  0.91341790  0.54858465  0.00001705    -0.87100
O3030       O  0.58655436  0.55050321  0.99988397    -0.88500
O3031       O  0.49754300  0.58691965  0.44962583    -0.87000
O3032       O  0.50212860  0.58692383  0.04937239    -0.86600
Zr3033     Zr  0.49966558  0.56171728  0.99981063     2.84300
O3034       O  0.96830647  0.53102195  0.46926304    -1.08600
O3035       O  0.53121369  0.53126806  0.03055710    -1.09300
C3036       C  0.50325175  0.57811864  0.07758564     1.06100
C3037       C  0.49746241  0.57782268  0.42142264     1.06100
C3038       C  0.57746675  0.57868497  0.99972566     1.09100
C3039       C  0.92184179  0.57693861  0.99989791     1.06900
H3040       H  0.54277181  0.54473232  0.45575940     0.32400
O3041       O  0.53026311  0.53164493  0.46842788    -1.29500
H3042       H  0.95630434  0.54359872  0.04415855     0.32100
O3043       O  0.96909734  0.53079569  0.03143932    -1.31200
O3044       O  0.50087354  0.94996901  0.41286269    -0.87000
O3045       O  0.49961056  0.95079098  0.08647614    -0.88500
O3046       O  0.58649552  0.50155717  0.44991224    -0.87000
O3047       O  0.91242888  0.50023041  0.45117870    -0.87100
O3048       O  0.91338291  0.49942870  0.05000356    -0.86800
O3049       O  0.58775485  0.50115808  0.04891028    -0.86600
O3050       O  0.55043489  0.91339769  0.99932824    -0.87000
O3051       O  0.95101115  0.91333167  0.00117325    -0.86400
O3052       O  0.58753234  0.95035367  0.99961237    -0.87500
O3053       O  0.91367460  0.95008496  0.00082893    -0.86700
O3054       O  0.54960314  0.50086679  0.41263200    -0.87100
O3055       O  0.55121617  0.49982719  0.08644135    -0.86800
O3056       O  0.95027655  0.50034148  0.08729671    -0.86400
O3057       O  0.94921236  0.50066799  0.41385696    -0.86800
O3058       O  0.50098641  0.91266364  0.44987054    -0.87100
O3059       O  0.49996441  0.91341406  0.04952474    -0.88500
Zr3060     Zr  0.49992858  0.49978614  0.43782625     2.83100
Zr3061     Zr  0.50120381  0.49986659  0.06165709     2.83500
Zr3062     Zr  0.56204924  0.50052976  0.99955301     2.84100
Zr3063     Zr  0.93898491  0.49907927  0.00038997     2.83400
Zr3064     Zr  0.50101335  0.93865643  0.99978350     2.84200
O3065       O  0.96967560  0.96921576  0.03204549    -1.09000
O3066       O  0.53131188  0.96873673  0.46845297    -1.08500
C3067       C  0.50104035  0.92176137  0.42166136     1.06100
C3068       C  0.49952037  0.92247801  0.07775604     1.08700
C3069       C  0.57773068  0.50143627  0.42162477     1.06300
C3070       C  0.92109813  0.50036787  0.42286928     1.06700
C3071       C  0.92209158  0.50011631  0.07831419     1.06200
C3072       C  0.57927454  0.50058676  0.07723489     1.05800
C3073       C  0.57858334  0.92207697  0.99935513     1.06200
C3074       C  0.92273448  0.92189261  0.00106499     1.05700
H3075       H  0.54451076  0.95660792  0.04403678     0.32400
O3076       O  0.53181960  0.96938151  0.03119608    -1.30100
H3077       H  0.95764840  0.95585403  0.45548679     0.32400
O3078       O  0.97011179  0.96881137  0.46836207    -1.31500
O3079       O  0.50251714  0.69976599  0.16318617    -0.87000
O3080       O  0.49920975  0.70118601  0.33740628    -0.87100
O3081       O  0.54952684  0.66296042  0.25045441    -0.88800
O3082       O  0.95094182  0.66277304  0.25317526    -0.87600
O3083       O  0.91376917  0.69975504  0.25299205    -0.87100
O3084       O  0.58657768  0.69995360  0.25036896    -0.88500
O3085       O  0.49906197  0.66389775  0.30036865    -0.87000
O3086       O  0.50204536  0.66311489  0.20071856    -0.86600
Zr3087     Zr  0.50026639  0.68853898  0.25028634     2.84300
O3088       O  0.96959381  0.71878049  0.28162774    -1.08600
O3089       O  0.53147551  0.71909916  0.21941980    -1.09300
C3090       C  0.50283029  0.67161469  0.17239160     1.06100
C3091       C  0.49870803  0.67292037  0.32861139     1.06100
C3092       C  0.57767020  0.67167254  0.25031170     1.09100
C3093       C  0.92270155  0.67158393  0.25397790     1.06900
H3094       H  0.54384136  0.70649188  0.29443398     0.32400
O3095       O  0.53126367  0.71921825  0.28143535    -1.29500
H3096       H  0.95686076  0.70526594  0.20692497     0.32100
O3097       O  0.96947782  0.71834058  0.21954231    -1.31200
O3098       O  0.49928831  0.80015873  0.33650839    -0.87000
O3099       O  0.50017478  0.79926269  0.16233625    -0.88500
O3100       O  0.58676200  0.75120467  0.30046125    -0.87000
O3101       O  0.91336621  0.74843763  0.30048787    -0.87100
O3102       O  0.91345877  0.74864726  0.20105731    -0.86800
O3103       O  0.58796442  0.74939805  0.20116707    -0.86600
O3104       O  0.54996349  0.83739316  0.25005474    -0.87000
O3105       O  0.94922856  0.83650491  0.24863003    -0.86400
O3106       O  0.58710488  0.80032868  0.25022344    -0.87500
O3107       O  0.91275504  0.79892552  0.24893806    -0.86700
O3108       O  0.54938353  0.75145530  0.33722984    -0.87100
O3109       O  0.55128984  0.74918964  0.16359676    -0.86800
O3110       O  0.95021274  0.74935307  0.16370253    -0.86400
O3111       O  0.95047783  0.74877665  0.33753114    -0.86800
O3112       O  0.50002925  0.83736327  0.29938906    -0.87100
O3113       O  0.49969959  0.83661144  0.19930719    -0.88500
Zr3114     Zr  0.49995869  0.75051876  0.31153814     2.83100
Zr3115     Zr  0.50097700  0.74977031  0.18789915     2.83500
Zr3116     Zr  0.56202888  0.75026495  0.25044576     2.84100
Zr3117     Zr  0.93862478  0.74939997  0.25066153     2.83400
Zr3118     Zr  0.50037439  0.81212437  0.24947836     2.84200
O3119       O  0.96883548  0.78038320  0.21925863    -1.09000
O3120       O  0.53108433  0.78151555  0.28098976    -1.08500
C3121       C  0.49944373  0.82834787  0.32762697     1.06100
C3122       C  0.49953637  0.82754997  0.17106784     1.08700
C3123       C  0.57760782  0.75150939  0.32862703     1.06300
C3124       C  0.92230706  0.74825369  0.32874516     1.06700
C3125       C  0.92206322  0.74901768  0.17276403     1.06200
C3126       C  0.57937476  0.74915537  0.17283391     1.05800
C3127       C  0.57813815  0.82861080  0.25028115     1.06200
C3128       C  0.92119159  0.82729991  0.24814783     1.05700
H3129       H  0.54445455  0.79383378  0.20603570     0.32400
O3130       O  0.53165268  0.78113477  0.21880155    -1.30100
H3131       H  0.95549087  0.79379983  0.29432751     0.32400
O3132       O  0.96847371  0.78115935  0.28163735    -1.31500
O3133       O  0.83685141  0.00052625  0.20096279    -0.87000
O3134       O  0.66352948  0.00197829  0.20020857    -0.87100
O3135       O  0.75058455  0.95151218  0.16245229    -0.88800
O3136       O  0.74986446  0.55023395  0.16393929    -0.87600
O3137       O  0.75053487  0.58743221  0.20095293    -0.87100
O3138       O  0.75005825  0.91407693  0.19929701    -0.88500
O3139       O  0.70051072  0.00205038  0.16303693    -0.87000
O3140       O  0.80027925  0.00038188  0.16342386    -0.86600
Zr3141     Zr  0.75026561  0.00094542  0.18821242     2.84300
O3142       O  0.71940743  0.53161036  0.21920021    -1.08600
O3143       O  0.78091059  0.96957856  0.21884928    -1.09300
C3144       C  0.82837075  0.00019029  0.17263048     1.06100
C3145       C  0.67236809  0.00246218  0.17197975     1.06100
C3146       C  0.75041336  0.92321333  0.17109107     1.09100
C3147       C  0.75019203  0.57845160  0.17267910     1.06900
H3148       H  0.70640642  0.95703791  0.20564824     0.32400
O3149       O  0.71918383  0.96964134  0.21857643    -1.29500
H3150       H  0.79444563  0.54426505  0.20733197     0.32100
O3151       O  0.78149744  0.53139508  0.21977250    -1.31200
O3152       O  0.66336839  0.00043641  0.29951070    -0.87000
O3153       O  0.83657936  0.00018638  0.30002188    -0.88500
O3154       O  0.70048120  0.91350553  0.24973170    -0.87000
O3155       O  0.70084503  0.58717180  0.25015261    -0.87100
O3156       O  0.80031536  0.58706902  0.25291109    -0.86800
O3157       O  0.79943333  0.91284081  0.24735849    -0.86600
O3158       O  0.74971532  0.95075786  0.33693595    -0.87000
O3159       O  0.74924593  0.54886749  0.33726678    -0.86400
O3160       O  0.75059331  0.91355204  0.29975343    -0.87500
O3161       O  0.75033886  0.58638784  0.30060781    -0.86700
O3162       O  0.66344826  0.95066265  0.25001018    -0.87100
O3163       O  0.83604220  0.95026147  0.24807192    -0.86800
O3164       O  0.83672891  0.54937202  0.25349337    -0.86400
O3165       O  0.66371889  0.55026626  0.24929834    -0.86800
O3166       O  0.70010659  0.00048178  0.33697465    -0.87100
O3167       O  0.79967033  0.99975587  0.33728921    -0.88500
Zr3168     Zr  0.68867309  0.00060540  0.24987905     2.83100
Zr3169     Zr  0.81132789  0.00023609  0.25031673     2.83500
Zr3170     Zr  0.75004336  0.93861646  0.24959346     2.84100
Zr3171     Zr  0.75038305  0.56191665  0.25068281     2.83400
Zr3172     Zr  0.74996725  0.00039788  0.31185533     2.84200
O3173       O  0.78030094  0.53060395  0.28208919    -1.09000
O3174       O  0.71917714  0.96938220  0.28081140    -1.08500
C3175       C  0.67199882  0.00035352  0.32783083     1.06100
C3176       C  0.82779777  0.99982018  0.32829096     1.08700
C3177       C  0.67234561  0.92236950  0.24978554     1.06300
C3178       C  0.67267579  0.57848918  0.24961096     1.06700
C3179       C  0.82837701  0.57775718  0.25378806     1.06200
C3180       C  0.82752030  0.92193512  0.24717721     1.05800
C3181       C  0.75024796  0.92252351  0.32806829     1.06200
C3182       C  0.74987699  0.57719266  0.32873190     1.05700
H3183       H  0.79367063  0.95617129  0.29375015     0.32400
O3184       O  0.78086735  0.96905973  0.28114291    -1.30100
H3185       H  0.70596810  0.54383833  0.29387806     0.32400
O3186       O  0.71877997  0.53109036  0.28112777    -1.31500
O3187       O  0.69854834  0.66374589  0.50238595    -0.87000
O3188       O  0.70157701  0.83752057  0.49848224    -0.87100
O3189       O  0.66357321  0.74870179  0.05015402    -0.88800
O3190       O  0.66303980  0.75138526  0.45028653    -0.87600
O3191       O  0.70003003  0.75179104  0.41313292    -0.87100
O3192       O  0.70075360  0.74931887  0.08719737    -0.88500
O3193       O  0.66404109  0.80094554  0.49940768    -0.87000
O3194       O  0.66208587  0.70142093  0.50158857    -0.86600
Zr3195     Zr  0.68830834  0.75070410  0.50003578     2.84300
O3196       O  0.71923793  0.78140470  0.46893146    -1.08600
O3197       O  0.71946647  0.71893795  0.03142700    -1.09300
C3198       C  0.67050683  0.67303173  0.50286806     1.06100
C3199       C  0.67332326  0.82906126  0.49865528     1.06100
C3200       C  0.67256705  0.74855739  0.07837065     1.09100
C3201       C  0.67190952  0.75203632  0.42203225     1.06900
H3202       H  0.70655211  0.79397986  0.04390205     0.32400
O3203       O  0.71924675  0.78113111  0.03112652    -1.29500
H3204       H  0.70524525  0.70651464  0.45604145     0.32100
O3205       O  0.71824269  0.71910867  0.46876105    -1.30800
O3206       O  0.80108262  0.83594219  0.49996637    -0.87000
O3207       O  0.79795873  0.66172700  0.49877000    -0.88500
O3208       O  0.75131302  0.80002991  0.08685309    -0.87000
O3209       O  0.75099665  0.79966560  0.41264352    -0.87100
O3210       O  0.74984344  0.70046183  0.41304735    -0.86800
O3211       O  0.75036024  0.70083894  0.08720453    -0.86600
O3212       O  0.83695152  0.74983213  0.04984694    -0.87000
O3213       O  0.83619759  0.74777604  0.44971369    -0.86400
O3214       O  0.80015899  0.74980009  0.08716690    -0.87500
O3215       O  0.79916043  0.74818682  0.41256373    -0.86700
O3216       O  0.75086127  0.83694825  0.04952944    -0.87100
O3217       O  0.75054622  0.66329318  0.05051067    -0.86800
O3218       O  0.74853660  0.66326656  0.45003787    -0.86400
O3219       O  0.75148209  0.83685144  0.44981556    -0.86800
O3220       O  0.83772291  0.79838988  0.49977367    -0.87100
O3221       O  0.83526516  0.69860217  0.49790238    -0.88500
Zr3222     Zr  0.75086388  0.81168778  0.49968637     2.83100
Zr3223     Zr  0.74877254  0.68801325  0.50011235     2.83500
Zr3224     Zr  0.75043320  0.75026005  0.06183449     2.84100
Zr3225     Zr  0.74970751  0.75003371  0.43817053     2.83400
Zr3226     Zr  0.81140293  0.74900746  0.49960622     2.84200
O3227       O  0.77992519  0.71846179  0.46900236    -1.09000
O3228       O  0.78131832  0.78112078  0.03094562    -1.08500
C3229       C  0.82916712  0.82678928  0.49974626     1.06100
C3230       C  0.82615639  0.67044181  0.49771302     1.08700
C3231       C  0.75140712  0.82820980  0.07785064     1.06300
C3232       C  0.75159292  0.82792152  0.42153681     1.06700
C3233       C  0.74927311  0.67223801  0.42180292     1.06200
C3234       C  0.75051702  0.67252387  0.07868595     1.05800
C3235       C  0.82829814  0.74954622  0.07816775     1.06200
C3236       C  0.82729917  0.74750010  0.42146305     1.05700
H3237       H  0.79409110  0.70631812  0.04400456     0.32400
O3238       O  0.78133146  0.71904588  0.03119723    -1.30100
H3239       H  0.79433560  0.79311154  0.45572536     0.32400
O3240       O  0.78139312  0.78062093  0.46855178    -1.31500
C3241       C  0.75042559  0.60228746  0.14839331    -0.05900
C3242       C  0.75210709  0.63336963  0.15670299    -0.33400
C3243       C  0.75228081  0.65643040  0.13450571     0.35900
C3244       C  0.75070457  0.64875085  0.10302222    -0.06300
C3245       C  0.74924990  0.61765671  0.09470908    -0.33300
C3246       C  0.74929718  0.59459902  0.11687560     0.35800
H3247       H  0.75335980  0.64005313  0.18060801     0.16200
O3248       O  0.75458068  0.68632668  0.14405208    -0.60800
H3249       H  0.74806030  0.61093733  0.07080829     0.16200
O3250       O  0.74779584  0.56467542  0.10723659    -0.60900
H3251       H  0.76922032  0.55867500  0.10292688     0.43200
H3252       H  0.73336570  0.69280907  0.14867435     0.43100
C3253       C  0.75180396  0.85244014  0.10179327    -0.05900
C3254       C  0.74326808  0.88254591  0.09409521    -0.33400
C3255       C  0.74253245  0.90574656  0.11624952     0.35900
C3256       C  0.75082649  0.89926950  0.14688455    -0.06300
C3257       C  0.75974957  0.86927397  0.15448102    -0.33300
C3258       C  0.76023499  0.84601589  0.13240030     0.35800
H3259       H  0.73653869  0.88815078  0.07084952     0.16200
O3260       O  0.73326305  0.93452912  0.10763038    -0.60800
H3261       H  0.76667613  0.86371822  0.17768213     0.16200
O3262       O  0.77000848  0.81735984  0.14090705    -0.60900
H3263       H  0.75205813  0.80751652  0.15063411     0.43200
H3264       H  0.71078882  0.93458397  0.11042059     0.43100
C3265       C  0.75088608  0.89859302  0.35227261    -0.05900
C3266       C  0.76132376  0.86895080  0.34512212    -0.33400
C3267       C  0.76226564  0.84591815  0.36742363     0.35900
C3268       C  0.75219033  0.85206233  0.39757876    -0.06300
C3269       C  0.74228853  0.88183643  0.40486877    -0.33300
C3270       C  0.74148407  0.90490279  0.38264684     0.35800
H3271       H  0.76918688  0.86359330  0.32217548     0.16200
O3272       O  0.77336359  0.81759467  0.35942523    -0.60800
H3273       H  0.73449178  0.88723612  0.42783163     0.16200
O3274       O  0.73100818  0.93338557  0.39094294    -0.60900
H3275       H  0.70882609  0.93309551  0.38637729     0.43200
H3276       H  0.79527266  0.81798858  0.36518804     0.43100
C3277       C  0.74984986  0.60118285  0.35286432    -0.05900
C3278       C  0.74749642  0.63216106  0.34427708    -0.33400
C3279       C  0.74710373  0.65547058  0.36621197     0.35900
C3280       C  0.74945230  0.64819767  0.39770577    -0.06300
C3281       C  0.75196043  0.61723464  0.40628210    -0.33300
C3282       C  0.75197507  0.59389201  0.38434522     0.35800
H3283       H  0.74568566  0.63858291  0.32034803     0.16200
O3284       O  0.74455394  0.68523138  0.35636266    -0.60800
H3285       H  0.75393227  0.61085552  0.43020677     0.16200
O3286       O  0.75462287  0.56412196  0.39411752    -0.60900
H3287       H  0.73353241  0.55760116  0.39917674     0.43200
H3288       H  0.72229447  0.68904993  0.35457658     0.43100
C3289       C  0.89864382  0.64754541  0.25561462    -0.05900
C3290       C  0.90579777  0.61724634  0.24740189    -0.33400
C3291       C  0.88344499  0.59433834  0.24714242     0.35900
C3292       C  0.85291847  0.60137128  0.25506189    -0.06300
C3293       C  0.84590834  0.63150861  0.26412495    -0.33300
C3294       C  0.86833873  0.65442451  0.26450579     0.35800
H3295       H  0.92877909  0.61125431  0.24043215     0.16200
O3296       O  0.89159187  0.56545465  0.23771188    -0.60800
H3297       H  0.82289154  0.63745356  0.27102666     0.16200
O3298       O  0.86045768  0.68323796  0.27442014    -0.60900
H3299       H  0.85025030  0.69309359  0.25666743     0.43200
H3300       H  0.90016884  0.55537110  0.25619240     0.43100
C3301       C  0.89703017  0.85130401  0.24688315    -0.05900
C3302       C  0.90456824  0.88182356  0.25396739    -0.33400
C3303       C  0.88249517  0.90501008  0.25362576     0.35900
C3304       C  0.85183514  0.89806208  0.24627208    -0.06300
C3305       C  0.84437371  0.86764206  0.23857483    -0.33300
C3306       C  0.86652738  0.84443524  0.23886977     0.35800
H3307       H  0.92770507  0.88786440  0.26034588     0.16200
O3308       O  0.89106950  0.93412459  0.26188787    -0.60800
H3309       H  0.82119189  0.86166050  0.23230176     0.16200
O3310       O  0.85814206  0.81531593  0.23048668    -0.60900
H3311       H  0.84900794  0.80615110  0.24915474     0.43200
H3312       H  0.90062085  0.94301120  0.24329720     0.43100
C3313       C  0.60168229  0.64750050  0.25001848    -0.05900
C3314       C  0.63251547  0.65604488  0.24735351    -0.33400
C3315       C  0.65580004  0.63410576  0.24716426     0.35900
C3316       C  0.64864905  0.60260575  0.24957072    -0.06300
C3317       C  0.61781122  0.59403703  0.25211471    -0.33300
C3318       C  0.59452073  0.61596169  0.25221220     0.35800
H3319       H  0.63883989  0.67996254  0.24531483     0.16200
O3320       O  0.68537992  0.64389547  0.24394318    -0.60800
H3321       H  0.61148426  0.57011546  0.25413650     0.16200
O3322       O  0.56492717  0.60609860  0.25507340    -0.60900
H3323       H  0.55819461  0.60124165  0.23389193     0.43200
H3324       H  0.69217212  0.64935612  0.26495724     0.43100
C3325       C  0.60205089  0.85281418  0.25032177    -0.05900
C3326       C  0.63157287  0.84585730  0.23977024    -0.33400
C3327       C  0.65453099  0.86818292  0.23919806     0.35900
C3328       C  0.64840643  0.89823538  0.24964276    -0.06300
C3329       C  0.61887549  0.90522275  0.26010479    -0.33300
C3330       C  0.59584314  0.88297946  0.26041796     0.35800
H3331       H  0.63687957  0.82306388  0.23145249     0.16200
O3332       O  0.68244472  0.86065666  0.22705102    -0.60800
H3333       H  0.61353865  0.92804810  0.26830943     0.16200
O3334       O  0.56764828  0.89082451  0.27165362    -0.60900
H3335       H  0.55700872  0.90103871  0.25436344     0.43200
H3336       H  0.69352308  0.84998094  0.24376892     0.43100
C3337       C  0.89776679  0.74888067  0.14886430    -0.05900
C3338       C  0.90529846  0.74156842  0.11840152    -0.33400
C3339       C  0.88309908  0.74143364  0.09528906     0.35900
C3340       C  0.85244576  0.74889465  0.10221986    -0.06300
C3341       C  0.84484303  0.75586872  0.13275571    -0.33300
C3342       C  0.86699178  0.75577546  0.15590748     0.35800
H3343       H  0.92854101  0.73558965  0.11235243     0.16200
O3344       O  0.89159606  0.73292858  0.06622379    -0.60800
H3345       H  0.82158489  0.76174955  0.13884782     0.16200
O3346       O  0.85828260  0.76341445  0.18514719    -0.60900
H3347       H  0.85009639  0.74421663  0.19411972     0.43200
H3348       H  0.89999975  0.75177535  0.05673318     0.43100
C3349       C  0.60355143  0.74874483  0.14900246    -0.05900
C3350       C  0.59707588  0.73658257  0.11986428    -0.33400
C3351       C  0.61932969  0.73588189  0.09686001     0.35900
C3352       C  0.64874555  0.74787089  0.10254715    -0.06300
C3353       C  0.65531786  0.75973454  0.13178341    -0.33300
C3354       C  0.63307123  0.76042251  0.15478721     0.35800
H3355       H  0.57471570  0.72717197  0.11492536     0.16200
O3356       O  0.61204529  0.72313753  0.06901987    -0.60800
H3357       H  0.67764553  0.76922649  0.13671244     0.16200
O3358       O  0.64033329  0.77326842  0.18257585    -0.60900
H3359       H  0.63493020  0.79526274  0.18054992     0.43200
H3360       H  0.61806466  0.70126906  0.07067072     0.43100
C3361       C  0.60143665  0.75192608  0.35282526    -0.05900
C3362       C  0.63093133  0.76246046  0.34575579    -0.33400
C3363       C  0.65393540  0.76308297  0.36801420     0.35900
C3364       C  0.64787289  0.75266744  0.39805661    -0.06300
C3365       C  0.61832969  0.74233708  0.40516413    -0.33300
C3366       C  0.59533884  0.74171533  0.38291835     0.35800
H3367       H  0.63619035  0.77064485  0.32290707     0.16200
O3368       O  0.68215224  0.77416821  0.36008373    -0.60800
H3369       H  0.61307363  0.73403986  0.42797216     0.16200
O3370       O  0.56716779  0.73051963  0.39084017    -0.60900
H3371       H  0.56783535  0.70838442  0.38562878     0.43200
H3372       H  0.68157908  0.79630052  0.36532046     0.43100
C3373       C  0.89832117  0.74748623  0.35282623    -0.05900
C3374       C  0.86895814  0.73659224  0.34558263    -0.33400
C3375       C  0.84573626  0.73601776  0.36763942     0.35900
C3376       C  0.85144811  0.74683498  0.39761959    -0.06300
C3377       C  0.88089527  0.75731875  0.40496075    -0.33300
C3378       C  0.90411466  0.75780902  0.38298666     0.35800
H3379       H  0.86396122  0.72818177  0.32274113     0.16200
O3380       O  0.81768210  0.72455166  0.35961500    -0.60800
H3381       H  0.88592499  0.76578327  0.42778516     0.16200
O3382       O  0.93222860  0.76891975  0.39128287    -0.60900
H3383       H  0.93178725  0.79099833  0.38585716     0.43200
H3384       H  0.81850647  0.70245117  0.36491528     0.43100
C3385       C  0.89869811  0.89770544  0.00091598    -0.05900
C3386       C  0.86822590  0.90577904  0.99458261    -0.33400
C3387       C  0.84504519  0.88370391  0.99395817     0.35900
C3388       C  0.85186064  0.85258905  0.00001528    -0.06300
C3389       C  0.88307299  0.84360238  0.50952045    -0.33300
C3390       C  0.90619022  0.86584146  0.50984510     0.35800
H3391       H  0.86219351  0.92937367  0.98971263     0.16200
O3392       O  0.81586901  0.89300050  0.98724875    -0.60800
H3393       H  0.88832857  0.82077938  0.51778959     0.16200
O3394       O  0.93450620  0.85781791  0.52065964    -0.60900
H3395       H  0.93455698  0.86401879  0.54255669     0.43200
H3396       H  0.81402256  0.89107231  0.96465246     0.43100
C3397       C  0.85244300  0.64773746  0.99989102    -0.05900
C3398       C  0.84419481  0.61669503  0.00259637    -0.33400
C3399       C  0.86623554  0.59344801  0.00241416     0.35900
C3400       C  0.89755943  0.60086547  0.99982059    -0.06300
C3401       C  0.90173381  0.62944327  0.48469344    -0.33300
C3402       C  0.87900514  0.65201720  0.48373601     0.35800
H3403       H  0.82044322  0.61018567  0.00486966     0.16200
O3404       O  0.85670510  0.56363131  0.00526293    -0.60800
H3405       H  0.92373468  0.63430111  0.47444365     0.16200
O3406       O  0.88505030  0.67917088  0.46908080    -0.60900
H3407       H  0.89718419  0.69140034  0.48389891     0.43200
H3408       H  0.85129480  0.55703357  0.98416987     0.43100
C3409       C  0.60241745  0.89773881  0.99902762    -0.05900
C3410       C  0.63283738  0.90553079  0.99245527    -0.33400
C3411       C  0.65579351  0.88321902  0.99173906     0.35900
C3412       C  0.64878631  0.85223987  0.99813355    -0.06300
C3413       C  0.61975747  0.84584153  0.48867919    -0.33300
C3414       C  0.59653494  0.86786007  0.48853068     0.35800
H3415       H  0.63897941  0.92906118  0.98746719     0.16200
O3416       O  0.68496044  0.89212309  0.98462177    -0.60800
H3417       H  0.61428712  0.82271974  0.48141242     0.16200
O3418       O  0.56798369  0.85938647  0.47874900    -0.60900
H3419       H  0.55810348  0.84993844  0.49688969     0.43200
H3420       H  0.68567568  0.89241764  0.96189472     0.43100
C3421       C  0.60150839  0.60274131  0.00009182    -0.05900
C3422       C  0.63168190  0.59465692  0.00769363    -0.33400
C3423       C  0.65499863  0.61654990  0.00824349     0.35900
C3424       C  0.64850161  0.64749440  0.00125547    -0.06300
C3425       C  0.61597959  0.65703905  0.49624972    -0.33300
C3426       C  0.59270579  0.63501904  0.49622199     0.35800
H3427       H  0.63738170  0.57118959  0.01349807     0.16200
O3428       O  0.68384198  0.60742889  0.01647796    -0.60800
H3429       H  0.61047067  0.68013432  0.48896603     0.16200
O3430       O  0.56406599  0.64359175  0.48677470    -0.60900
H3431       H  0.55440782  0.65310027  0.50503086     0.43200
H3432       H  0.69305174  0.59902507  0.99746022     0.43100
C3433       C  0.89681252  0.49999131  0.39901350    -0.05900
C3434       C  0.87072584  0.98619639  0.40291345    -0.33400
C3435       C  0.84720908  0.98635795  0.38117304     0.35900
C3436       C  0.84968973  0.49969044  0.35430827    -0.06300
C3437       C  0.88012080  0.49358956  0.34609752    -0.33300
C3438       C  0.90343587  0.49359253  0.36796277     0.35800
H3439       H  0.86650260  0.97571070  0.42502819     0.16200
O3440       O  0.82001713  0.97250103  0.38827991    -0.60800
H3441       H  0.88605252  0.48848823  0.32251635     0.16200
O3442       O  0.93259285  0.48712976  0.35851742    -0.60900
H3443       H  0.93462949  0.46457548  0.36056186     0.43200
H3444       H  0.80850844  0.98791657  0.40038672     0.43100
C3445       C  0.64687816  0.50039147  0.35110091    -0.05900
C3446       C  0.65448592  0.01104238  0.38134017    -0.33400
C3447       C  0.63207763  0.01168250  0.40420028     0.35900
C3448       C  0.60171441  0.50170298  0.39756951    -0.06300
C3449       C  0.59439521  0.49230817  0.36759993    -0.33300
C3450       C  0.61657638  0.49149127  0.34456060     0.35800
H3451       H  0.67715969  0.01930472  0.38685178     0.16200
O3452       O  0.63976189  0.02274869  0.43264211    -0.60800
H3453       H  0.57141836  0.48502622  0.36198291     0.16200
O3454       O  0.60830480  0.48162864  0.31584387    -0.60900
H3455       H  0.61185056  0.45916253  0.31595906     0.43200
H3456       H  0.63453116  0.04487480  0.43208721     0.43100
C3457       C  0.60354105  0.50051285  0.10103813    -0.05900
C3458       C  0.59660359  0.49040915  0.13080379    -0.33400
C3459       C  0.61877418  0.49019143  0.15388774     0.35900
C3460       C  0.64877950  0.50023802  0.14754499    -0.06300
C3461       C  0.65532807  0.99262250  0.11826662    -0.33300
C3462       C  0.63297018  0.99163857  0.09540765     0.35800
H3463       H  0.57387160  0.48235538  0.13629580     0.16200
O3464       O  0.61101762  0.47906394  0.18225993    -0.60800
H3465       H  0.67810104  0.98462026  0.11278645     0.16200
O3466       O  0.64083911  0.98059752  0.06700529    -0.60900
H3467       H  0.63560826  0.95847577  0.06748085     0.43200
H3468       H  0.60023700  0.49616807  0.19266321     0.43100
C3469       C  0.85284506  0.50100032  0.14922806    -0.05900
C3470       C  0.84512838  0.00534038  0.11808455    -0.33400
C3471       C  0.86745719  0.00535717  0.09518389     0.35900
C3472       C  0.89797683  0.50070420  0.10240012    -0.06300
C3473       C  0.90517270  0.49158925  0.13246005    -0.33300
C3474       C  0.88303511  0.49151835  0.15562548     0.35800
H3475       H  0.82174547  0.01021812  0.11159913     0.16200
O3476       O  0.85865725  0.01151185  0.06561844    -0.60800
H3477       H  0.92804399  0.48394010  0.13805658     0.16200
O3478       O  0.89123366  0.48166864  0.18433276    -0.60900
H3479       H  0.88703343  0.45932293  0.18436292     0.43200
H3480       H  0.86011853  0.03411146  0.06354363     0.43100
C3481       C  0.49719321  0.60180595  0.39733190    -0.05900
C3482       C  0.48850740  0.63190417  0.40494768    -0.33400
C3483       C  0.48888612  0.65528117  0.38302057     0.35900
C3484       C  0.49791434  0.64883233  0.35259664    -0.06300
C3485       C  0.00879360  0.61870271  0.34571663    -0.33300
C3486       C  0.00826812  0.59554522  0.36776083     0.35800
H3487       H  0.48121996  0.63745862  0.42804068     0.16200
O3488       O  0.47938127  0.68406123  0.39145290    -0.60800
H3489       H  0.01625106  0.61296279  0.32272275     0.16200
O3490       O  0.01725479  0.56658411  0.35935738    -0.60900
H3491       H  0.03949411  0.56581017  0.36357571     0.43200
H3492       H  0.49740807  0.69374154  0.40125694     0.43100
C3493       C  0.50075562  0.89804396  0.39745270    -0.05900
C3494       C  0.00479904  0.86804453  0.40561292    -0.33400
C3495       C  0.00449117  0.84483764  0.38357102     0.35900
C3496       C  0.49920038  0.85217580  0.35174539    -0.06300
C3497       C  0.51111759  0.88130455  0.34525383    -0.33300
C3498       C  0.51185905  0.90415286  0.36769067     0.35800
H3499       H  0.00930630  0.86178999  0.42922831     0.16200
O3500       O  0.00959870  0.81524434  0.39293439    -0.60800
H3501       H  0.52035634  0.88635521  0.32277234     0.16200
O3502       O  0.52461325  0.93196018  0.36053117    -0.60900
H3503       H  0.50809278  0.94374883  0.35036778     0.43200
H3504       H  0.03207576  0.81256293  0.39228645     0.43100
C3505       C  0.49880203  0.85160940  0.14697477    -0.05900
C3506       C  0.01137219  0.88043366  0.15462035    -0.33400
C3507       C  0.01234004  0.90353666  0.13242917     0.35900
C3508       C  0.49900384  0.89848043  0.10193419    -0.06300
C3509       C  0.49319931  0.86781878  0.09379828    -0.33300
C3510       C  0.49285801  0.84459780  0.11588493     0.35800
H3511       H  0.02092754  0.88508383  0.17707114     0.16200
O3512       O  0.02563906  0.93104301  0.13981595    -0.60800
H3513       H  0.48867876  0.86166032  0.07015072     0.16200
O3514       O  0.48663890  0.81517902  0.10663218    -0.60900
H3515       H  0.46416613  0.81304520  0.10839936     0.43200
H3516       H  0.04724743  0.92905324  0.13331233     0.43100
C3517       C  0.50461239  0.60218719  0.10167683    -0.05900
C3518       C  0.01464321  0.59606679  0.13071572    -0.33400
C3519       C  0.01513577  0.61823140  0.15394015     0.35900
C3520       C  0.50406247  0.64731225  0.14851744    -0.06300
C3521       C  0.50844501  0.65557579  0.11766983    -0.33300
C3522       C  0.50887940  0.63348389  0.09444876     0.35800
H3523       H  0.02452243  0.57374862  0.13530626     0.16200
O3524       O  0.02897375  0.61131149  0.18131058    -0.60800
H3525       H  0.51152781  0.67937598  0.11129760     0.16200
O3526       O  0.51315469  0.64300338  0.06478196    -0.60900
H3527       H  0.53556307  0.64241703  0.06154751     0.43200
H3528       H  0.01349999  0.59969536  0.19314330     0.43100
O3529       O  0.49985098  0.55018696  0.58624943    -0.87000
O3530       O  0.49877562  0.54940286  0.91281432    -0.87100
O3531       O  0.54732539  0.58806677  0.50140400    -0.88800
O3532       O  0.94878036  0.58682537  0.49904726    -0.87600
O3533       O  0.91238907  0.54907623  0.49969759    -0.87100
O3534       O  0.58505264  0.55164661  0.50229087    -0.88500
O3535       O  0.49762168  0.58659361  0.94988397    -0.87000
O3536       O  0.49813393  0.58707267  0.54903062    -0.86600
Zr3537     Zr  0.49837913  0.56172433  0.49933173     2.84300
O3538       O  0.96942330  0.53023926  0.96936338    -1.08600
O3539       O  0.52999425  0.53172395  0.53034581    -1.09300
C3540       C  0.49901069  0.57836370  0.57730148     1.06100
C3541       C  0.49774119  0.57762709  0.92161988     1.06100
C3542       C  0.57561685  0.57978170  0.50262413     1.09100
C3543       C  0.92074667  0.57741354  0.49909901     1.06900
H3544       H  0.54358160  0.54432470  0.95565553     0.32400
O3545       O  0.53108327  0.53145447  0.96855439    -1.29500
H3546       H  0.95594861  0.54408014  0.54439620     0.32100
O3547       O  0.96859940  0.53128342  0.53152480    -1.31200
O3548       O  0.50285268  0.95091101  0.91245767    -0.87000
O3549       O  0.49883027  0.95071166  0.58678838    -0.88500
O3550       O  0.58709709  0.49915688  0.95014039    -0.87000
O3551       O  0.91416654  0.50032758  0.95039780    -0.87100
O3552       O  0.91371552  0.50003207  0.55076115    -0.86800
O3553       O  0.58663310  0.50143503  0.54918622    -0.86600
O3554       O  0.55057622  0.91311816  0.49905320    -0.87000
O3555       O  0.95220659  0.91196851  0.50020330    -0.86400
O3556       O  0.58721389  0.95054370  0.49843326    -0.87500
O3557       O  0.91461090  0.94851377  0.49863456    -0.86700
O3558       O  0.55027101  0.49951863  0.91287719    -0.87100
O3559       O  0.54982504  0.50150517  0.58641309    -0.86800
O3560       O  0.95067093  0.50056886  0.58792516    -0.86400
O3561       O  0.95127772  0.50051621  0.91345615    -0.86800
O3562       O  0.50238927  0.91383233  0.94961874    -0.87100
O3563       O  0.49961338  0.91325780  0.54990502    -0.88500
Zr3564     Zr  0.50039770  0.49992916  0.93808349     2.83100
Zr3565     Zr  0.49973476  0.50050153  0.56128460     2.83500
Zr3566     Zr  0.56128720  0.50097967  0.49963166     2.84100
Zr3567     Zr  0.93816318  0.49984944  0.50058208     2.83400
Zr3568     Zr  0.50081205  0.93790984  0.49975824     2.84200
O3569       O  0.96948705  0.96874979  0.53038723    -1.09000
O3570       O  0.53193073  0.96940796  0.96894567    -1.08500
C3571       C  0.50310191  0.92272412  0.92133906     1.06100
C3572       C  0.49888024  0.92239072  0.57811941     1.08700
C3573       C  0.57842350  0.49898579  0.92190217     1.06300
C3574       C  0.92308605  0.50079762  0.92214264     1.06700
C3575       C  0.92247312  0.50038366  0.57904863     1.06200
C3576       C  0.57802639  0.50160798  0.57748057     1.05800
C3577       C  0.57861175  0.92219649  0.49831219     1.06200
C3578       C  0.92390583  0.92035387  0.49952717     1.05700
H3579       H  0.54405045  0.95636472  0.54388378     0.32400
O3580       O  0.53125336  0.96900732  0.53102064    -1.30100
H3581       H  0.95708095  0.95605629  0.95683938     0.32400
O3582       O  0.96966874  0.96897220  0.96964029    -1.31500
O3583       O  0.49979238  0.69904537  0.66390341    -0.87000
O3584       O  0.49780918  0.70114941  0.83749388    -0.87100
O3585       O  0.54799988  0.66225918  0.75033965    -0.88800
O3586       O  0.95002412  0.66262840  0.75064205    -0.87600
O3587       O  0.91333274  0.69997540  0.74999028    -0.87100
O3588       O  0.58526753  0.69907350  0.75028672    -0.88500
O3589       O  0.49737279  0.66375304  0.80062626    -0.87000
O3590       O  0.49871203  0.66222041  0.70127190    -0.86600
Zr3591     Zr  0.49866719  0.68818503  0.75055214     2.84300
O3592       O  0.96874183  0.71841679  0.78163180    -1.08600
O3593       O  0.53016186  0.71840629  0.71960419    -1.09300
C3594       C  0.49925479  0.67085924  0.67298464     1.06100
C3595       C  0.49716824  0.67285297  0.82883117     1.06100
C3596       C  0.57623559  0.67081402  0.75010405     1.09100
C3597       C  0.92190995  0.67169561  0.75031198     1.06900
H3598       H  0.54250026  0.70600569  0.79454595     0.32400
O3599       O  0.52997291  0.71875934  0.78152717    -1.29500
H3600       H  0.95665472  0.70544071  0.70613765     0.32100
O3601       O  0.96923416  0.71827368  0.71903835    -1.31200
O3602       O  0.49992937  0.80006094  0.83650738    -0.87000
O3603       O  0.49909943  0.79897324  0.66244182    -0.88500
O3604       O  0.58570606  0.75074065  0.80061945    -0.87000
O3605       O  0.91316632  0.74750644  0.79984120    -0.87100
O3606       O  0.91385372  0.74975782  0.70022593    -0.86800
O3607       O  0.58656299  0.74792068  0.70084827    -0.86600
O3608       O  0.54897482  0.83714770  0.75062454    -0.87000
O3609       O  0.94985008  0.83612087  0.74978069    -0.86400
O3610       O  0.58576752  0.79974774  0.75120131    -0.87500
O3611       O  0.91312643  0.79878386  0.74969175    -0.86700
O3612       O  0.54837997  0.75117059  0.83739105    -0.87100
O3613       O  0.55012021  0.74736121  0.66312292    -0.86800
O3614       O  0.95078806  0.74967471  0.66305481    -0.86400
O3615       O  0.94994436  0.74788818  0.83720377    -0.86800
O3616       O  0.50057206  0.83724752  0.79946485    -0.87100
O3617       O  0.49888376  0.83635082  0.69942003    -0.88500
Zr3618     Zr  0.49896755  0.75041938  0.81153609     2.83100
Zr3619     Zr  0.50007260  0.74935059  0.68803698     2.83500
Zr3620     Zr  0.56092385  0.74953835  0.75044623     2.84100
Zr3621     Zr  0.93865131  0.74938291  0.75015031     2.83400
Zr3622     Zr  0.49952114  0.81188770  0.74953485     2.84200
O3623       O  0.96946757  0.78035493  0.71935884    -1.09000
O3624       O  0.53003576  0.78096188  0.78075353    -1.08500
C3625       C  0.50065949  0.82827013  0.82773056     1.06100
C3626       C  0.49855073  0.82728256  0.67119571     1.08700
C3627       C  0.57663186  0.75125211  0.82884853     1.06300
C3628       C  0.92186923  0.74710603  0.82818462     1.06700
C3629       C  0.92258271  0.74989311  0.67194998     1.06200
C3630       C  0.57819241  0.74715863  0.67242881     1.05800
C3631       C  0.57704743  0.82812329  0.75129896     1.06200
C3632       C  0.92173992  0.82706573  0.74950900     1.05700
H3633       H  0.54371887  0.79333625  0.70601563     0.32400
O3634       O  0.53082322  0.78075177  0.71880595    -1.30100
H3635       H  0.95583549  0.79332360  0.79430376     0.32400
O3636       O  0.96873506  0.78068328  0.78153073    -1.31500
O3637       O  0.83637287  0.99826457  0.69968577    -0.87000
O3638       O  0.66275780  0.00005672  0.70097898    -0.87100
O3639       O  0.74912564  0.94981171  0.66276412    -0.88800
O3640       O  0.74946751  0.55018317  0.66410294    -0.87600
O3641       O  0.74977302  0.58744541  0.70115681    -0.87100
O3642       O  0.75088759  0.91235468  0.69962402    -0.88500
O3643       O  0.69937586  0.00091183  0.66358692    -0.87000
O3644       O  0.79924417  0.99786418  0.66259638    -0.86600
Zr3645     Zr  0.74963668  0.99955390  0.68807294     2.84300
O3646       O  0.71923259  0.53103936  0.71949187    -1.08600
O3647       O  0.78086503  0.96876509  0.71877491    -1.09300
C3648       C  0.82744725  0.99742618  0.67140545     1.06100
C3649       C  0.67124407  0.00084230  0.67268012     1.06100
C3650       C  0.74996913  0.92153391  0.67146715     1.09100
C3651       C  0.74959709  0.57845442  0.67288471     1.06900
H3652       H  0.70609811  0.95549333  0.70596942     0.32400
O3653       O  0.71893930  0.96820585  0.71872654    -1.29500
H3654       H  0.79377225  0.54401229  0.70732927     0.32100
O3655       O  0.78103874  0.53109311  0.71993303    -1.31200
O3656       O  0.66391085  0.99872014  0.79992902    -0.87000
O3657       O  0.83670453  0.00060463  0.80000470    -0.88500
O3658       O  0.70059328  0.91219463  0.74983789    -0.87000
O3659       O  0.69991489  0.58650506  0.74994018    -0.87100
O3660       O  0.79990232  0.58673670  0.75145234    -0.86800
O3661       O  0.80038254  0.91288431  0.74950755    -0.86600
O3662       O  0.74858526  0.94900798  0.83642512    -0.87000
O3663       O  0.74843383  0.54888001  0.83758365    -0.86400
O3664       O  0.74881872  0.91193622  0.79909938    -0.87500
O3665       O  0.74890383  0.58636781  0.80089883    -0.86700
O3666       O  0.66353226  0.94928064  0.75095629    -0.87100
O3667       O  0.83707853  0.95027377  0.74978134    -0.86800
O3668       O  0.83666438  0.54938780  0.75171343    -0.86400
O3669       O  0.66313358  0.54922231  0.74983319    -0.86800
O3670       O  0.70073033  0.99841861  0.83714828    -0.87100
O3671       O  0.79970589  0.99968609  0.83705351    -0.88500
Zr3672     Zr  0.68858782  0.99925420  0.75014928     2.83100
Zr3673     Zr  0.81157660  0.99981120  0.74988908     2.83500
Zr3674     Zr  0.75029486  0.93749219  0.74953287     2.84100
Zr3675     Zr  0.74991892  0.56178771  0.75081162     2.83400
Zr3676     Zr  0.75015304  0.99904064  0.81160979     2.84200
O3677       O  0.78083191  0.53102764  0.78194805    -1.09000
O3678       O  0.71938421  0.96804785  0.78078113    -1.08500
C3679       C  0.67260081  0.99837997  0.82818306     1.06100
C3680       C  0.82787450  0.00041672  0.82833332     1.08700
C3681       C  0.67240977  0.92098671  0.75056404     1.06300
C3682       C  0.67177959  0.57757842  0.74964262     1.06700
C3683       C  0.82804792  0.57765467  0.75168605     1.06200
C3684       C  0.82849462  0.92196143  0.74965935     1.05800
C3685       C  0.74807388  0.92079065  0.82738061     1.06200
C3686       C  0.74831362  0.57715588  0.82905285     1.05700
H3687       H  0.79401586  0.95541450  0.79363652     0.32400
O3688       O  0.78128541  0.96817435  0.78082167    -1.30100
H3689       H  0.70593266  0.54326930  0.79427170     0.32400
O3690       O  0.71893841  0.53072513  0.78151390    -1.31500
O3691       O  0.70077253  0.66268272  0.00140831    -0.87000
O3692       O  0.70084562  0.83676621  0.99899250    -0.87100
O3693       O  0.66330060  0.74849452  0.54988631    -0.88800
O3694       O  0.66312839  0.75012869  0.95052268    -0.87600
O3695       O  0.70002622  0.75042479  0.91333301    -0.87100
O3696       O  0.70042376  0.74832968  0.58695813    -0.88500
O3697       O  0.66374873  0.79977836  0.99921970    -0.87000
O3698       O  0.66370454  0.69975735  0.00088287    -0.86600
Zr3699     Zr  0.68857496  0.74970251  0.00032347     2.84300
O3700       O  0.71911813  0.78054282  0.96916236    -1.08600
O3701       O  0.71875494  0.71958103  0.53101064    -1.09300
C3702       C  0.67260549  0.67149388  0.00131741     1.06100
C3703       C  0.67270340  0.82803142  0.99870891     1.06100
C3704       C  0.67221571  0.74749883  0.57811678     1.09100
C3705       C  0.67187158  0.75072571  0.92220276     1.06900
H3706       H  0.70678424  0.79447413  0.54386936     0.32400
O3707       O  0.71938016  0.78158081  0.53103750    -1.29500
H3708       H  0.70614510  0.70552558  0.95668365     0.32100
O3709       O  0.71897737  0.71831931  0.96936626    -1.30800
O3710       O  0.79965668  0.83709847  0.99977596    -0.87000
O3711       O  0.80012652  0.66281225  0.99986849    -0.88500
O3712       O  0.75125975  0.79994129  0.58651634    -0.87000
O3713       O  0.74967724  0.79843184  0.91254819    -0.87100
O3714       O  0.74931395  0.69963593  0.91383586    -0.86800
O3715       O  0.74964092  0.70079558  0.58725367    -0.86600
O3716       O  0.83698461  0.74899778  0.54911508    -0.87000
O3717       O  0.83642157  0.74807779  0.94970509    -0.86400
O3718       O  0.80033442  0.75004469  0.58653961    -0.87500
O3719       O  0.79902830  0.74745415  0.91294506    -0.86700
O3720       O  0.75139010  0.83711697  0.54931433    -0.87100
O3721       O  0.74844162  0.66333787  0.55041054    -0.86800
O3722       O  0.74973999  0.66252364  0.95086252    -0.86400
O3723       O  0.74940860  0.83601178  0.94934330    -0.86800
O3724       O  0.83677769  0.80008994  0.00002719    -0.87100
O3725       O  0.83688329  0.70010770  0.00022429    -0.88500
Zr3726     Zr  0.75027489  0.81151560  0.99970259     2.83100
Zr3727     Zr  0.75034168  0.68798870  0.00051101     2.83500
Zr3728     Zr  0.75022322  0.75011733  0.56163021     2.84100
Zr3729     Zr  0.74978723  0.74929990  0.93858028     2.83400
Zr3730     Zr  0.81186625  0.74994980  0.99993079     2.84200
O3731       O  0.78107103  0.71861107  0.96928302    -1.09000
O3732       O  0.78141336  0.78059127  0.53071561    -1.08500
C3733       C  0.82784383  0.82838509  0.99990945     1.06100
C3734       C  0.82826576  0.67179912  0.99996561     1.08700
C3735       C  0.75165877  0.82812457  0.57752530     1.06300
C3736       C  0.74936628  0.82674577  0.92114398     1.06700
C3737       C  0.74920985  0.67144652  0.92262272     1.06200
C3738       C  0.74882074  0.67250421  0.57865416     1.05800
C3739       C  0.82846871  0.74948608  0.57745109     1.06200
C3740       C  0.82724310  0.74730274  0.92150334     1.05700
H3741       H  0.79320070  0.70539703  0.54357851     0.32400
O3742       O  0.78055309  0.71834787  0.53087813    -1.30100
H3743       H  0.79379657  0.79328371  0.95564502     0.32400
O3744       O  0.78114149  0.78067318  0.96864365    -1.31500
C3745       C  0.74954258  0.60238395  0.64864091    -0.05900
C3746       C  0.74286629  0.63295528  0.65637480    -0.33400
C3747       C  0.74238753  0.65594867  0.63403639     0.35900
C3748       C  0.74868511  0.64870776  0.60303409    -0.06300
C3749       C  0.75537108  0.61814928  0.59534138    -0.33300
C3750       C  0.75612179  0.59523261  0.61769922     0.35800
H3751       H  0.73772471  0.63918641  0.67987563     0.16200
O3752       O  0.73576814  0.68538755  0.64297716    -0.60800
H3753       H  0.76060031  0.61190076  0.57186659     0.16200
O3754       O  0.76359517  0.56597189  0.60886713    -0.60900
H3755       H  0.78597247  0.56436103  0.61199121     0.43200
H3756       H  0.71335069  0.68745744  0.64052225     0.43100
C3757       C  0.75189520  0.85203263  0.60146807    -0.05900
C3758       C  0.73753391  0.88024277  0.59581029    -0.33400
C3759       C  0.73645365  0.90294456  0.61841663     0.35900
C3760       C  0.75013357  0.89775907  0.64727370    -0.06300
C3761       C  0.76464692  0.86957651  0.65283840    -0.33300
C3762       C  0.76574222  0.84687958  0.63019557     0.35800
H3763       H  0.72657689  0.88455221  0.57393958     0.16200
O3764       O  0.72170469  0.92997202  0.61207948    -0.60800
H3765       H  0.77576807  0.86530593  0.67463031     0.16200
O3766       O  0.78165793  0.82035915  0.63586467    -0.60900
H3767       H  0.76779450  0.80752040  0.64841295     0.43200
H3768       H  0.70029153  0.92672902  0.61871521     0.43100
C3769       C  0.74710300  0.89661691  0.85123646    -0.05900
C3770       C  0.75837788  0.86722862  0.84444739    -0.33400
C3771       C  0.75937384  0.84436677  0.86686963     0.35900
C3772       C  0.74866681  0.85045450  0.89680519    -0.06300
C3773       C  0.73688192  0.87967275  0.90343072    -0.33300
C3774       C  0.73572029  0.90250253  0.88096024     0.35800
H3775       H  0.76729379  0.86208510  0.82183935     0.16200
O3776       O  0.77171400  0.81645841  0.85938475    -0.60800
H3777       H  0.72819980  0.88483468  0.92609554     0.16200
O3778       O  0.72324436  0.93040227  0.88837888    -0.60900
H3779       H  0.70141118  0.92885135  0.88253270     0.43200
H3780       H  0.79387201  0.81867240  0.86349570     0.43100
C3781       C  0.74751827  0.60091359  0.85334670    -0.05900
C3782       C  0.74527798  0.63192325  0.84498441    -0.33400
C3783       C  0.74535357  0.65504211  0.86708640     0.35900
C3784       C  0.74821512  0.64751890  0.89849503    -0.06300
C3785       C  0.74990747  0.61648182  0.90690081    -0.33300
C3786       C  0.74924106  0.59332365  0.88481743     0.35800
H3787       H  0.74345444  0.63851763  0.82110336     0.16200
O3788       O  0.74299260  0.68488776  0.85745228    -0.60800
H3789       H  0.75180151  0.60990969  0.93078113     0.16200
O3790       O  0.75085668  0.56343006  0.89445383    -0.60900
H3791       H  0.72944543  0.55738551  0.89870361     0.43200
H3792       H  0.72077194  0.68930319  0.85708009     0.43100
C3793       C  0.89768396  0.64784768  0.75041355    -0.05900
C3794       C  0.90564538  0.61704082  0.75540652    -0.33400
C3795       C  0.88345289  0.59404694  0.75610241     0.35900
C3796       C  0.85232035  0.60147044  0.75153484    -0.06300
C3797       C  0.84438673  0.63226063  0.74643517    -0.33300
C3798       C  0.86658121  0.65525010  0.74573851     0.35800
H3799       H  0.92924618  0.61057703  0.75911104     0.16200
O3800       O  0.89268743  0.56443353  0.76129334    -0.60800
H3801       H  0.82079707  0.63872134  0.74266580     0.16200
O3802       O  0.85738133  0.68486058  0.74048005    -0.60900
H3803       H  0.85694800  0.68703352  0.71783992     0.43200
H3804       H  0.89236268  0.56196845  0.78390551     0.43100
C3805       C  0.89761971  0.85106871  0.74931943    -0.05900
C3806       C  0.90563303  0.88173830  0.75511267    -0.33400
C3807       C  0.88363635  0.90499242  0.75532157     0.35900
C3808       C  0.85263961  0.89794654  0.74967344    -0.06300
C3809       C  0.84462201  0.86726010  0.74391235    -0.33300
C3810       C  0.86661595  0.84399566  0.74376609     0.35800
H3811       H  0.92912609  0.88789447  0.75984192     0.16200
O3812       O  0.89273150  0.93432287  0.76211858    -0.60800
H3813       H  0.82111748  0.86109049  0.73925737     0.16200
O3814       O  0.85749082  0.81460583  0.73727342    -0.60900
H3815       H  0.84941565  0.80641480  0.75687014     0.43200
H3816       H  0.90103880  0.94262836  0.74267266     0.43100
C3817       C  0.60026942  0.64652009  0.74953414    -0.05900
C3818       C  0.63094395  0.65489121  0.74501749    -0.33400
C3819       C  0.65430230  0.63296285  0.74480348     0.35900
C3820       C  0.64747681  0.60160088  0.74925477    -0.06300
C3821       C  0.61674946  0.59314805  0.75338078    -0.33300
C3822       C  0.59333358  0.61506694  0.75326708     0.35800
H3823       H  0.63707824  0.67868012  0.74145982     0.16200
O3824       O  0.68361956  0.64257818  0.73940939    -0.60800
H3825       H  0.61063591  0.56932950  0.75678374     0.16200
O3826       O  0.56385200  0.60531934  0.75736775    -0.60900
H3827       H  0.55665970  0.59929284  0.73663918     0.43200
H3828       H  0.69132335  0.64978688  0.75956067     0.43100
C3829       C  0.60123288  0.85207640  0.75176219    -0.05900
C3830       C  0.63115755  0.84425198  0.74317251    -0.33400
C3831       C  0.65448023  0.86617520  0.74273837     0.35900
C3832       C  0.64829275  0.89689662  0.75103090    -0.06300
C3833       C  0.61838695  0.90468338  0.75987744    -0.33300
C3834       C  0.59502383  0.88275528  0.76021845     0.35800
H3835       H  0.63658071  0.82101187  0.73625570     0.16200
O3836       O  0.68295207  0.85739441  0.73301687    -0.60800
H3837       H  0.61295840  0.92793357  0.76676078     0.16200
O3838       O  0.56646571  0.89149671  0.76976704    -0.60900
H3839       H  0.55704992  0.90173720  0.75179035     0.43200
H3840       H  0.69263357  0.84758887  0.75109177     0.43100
C3841       C  0.89834568  0.75001029  0.64791879    -0.05900
C3842       C  0.90576862  0.74235611  0.61749639    -0.33400
C3843       C  0.88348399  0.74203001  0.59441885     0.35900
C3844       C  0.85280947  0.74945959  0.60138019    -0.06300
C3845       C  0.84539298  0.75704950  0.63181642    -0.33300
C3846       C  0.86764747  0.75729610  0.65489148     0.35800
H3847       H  0.92897237  0.73620591  0.61147169     0.16200
O3848       O  0.89190009  0.73329589  0.56538734    -0.60800
H3849       H  0.82217612  0.76308489  0.63790269     0.16200
O3850       O  0.85912382  0.76561462  0.68400695    -0.60900
H3851       H  0.85039952  0.74679212  0.69325706     0.43200
H3852       H  0.90082056  0.75191705  0.55592400     0.43100
C3853       C  0.60267298  0.74613907  0.64867824    -0.05900
C3854       C  0.59586452  0.73607520  0.61877291    -0.33400
C3855       C  0.61829977  0.73553632  0.59583128     0.35900
C3856       C  0.64826440  0.74574014  0.60229061    -0.06300
C3857       C  0.65525173  0.75494154  0.63236759    -0.33300
C3858       C  0.63291145  0.75536050  0.65530872     0.35800
H3859       H  0.57304407  0.72835567  0.61309235     0.16200
O3860       O  0.61057778  0.72487622  0.56723840    -0.60800
H3861       H  0.67804273  0.76271274  0.63808928     0.16200
O3862       O  0.64092445  0.76555143  0.68397331    -0.60900
H3863       H  0.63709316  0.78796798  0.68364127     0.43200
H3864       H  0.61511018  0.70259027  0.56771500     0.43100
C3865       C  0.60059594  0.75185239  0.85316073    -0.05900
C3866       C  0.63076904  0.75972999  0.84543227    -0.33400
C3867       C  0.65403496  0.75987156  0.86749937     0.35900
C3868       C  0.64762489  0.75167132  0.89818981    -0.06300
C3869       C  0.61734875  0.74433932  0.90602682    -0.33300
C3870       C  0.59406159  0.74432407  0.88399362     0.35800
H3871       H  0.63647862  0.76603501  0.82210358     0.16200
O3872       O  0.68291879  0.76814234  0.85862673    -0.60800
H3873       H  0.61160593  0.73807123  0.92935671     0.16200
O3874       O  0.56507598  0.73657452  0.89299352    -0.60900
H3875       H  0.56391177  0.71399320  0.89056178     0.43200
H3876       H  0.68409983  0.79056228  0.86229354     0.43100
C3877       C  0.89770996  0.74612862  0.85211131    -0.05900
C3878       C  0.86759999  0.75414839  0.84438520    -0.33400
C3879       C  0.84440117  0.75414575  0.86641785     0.35900
C3880       C  0.85099206  0.74634495  0.89717094    -0.06300
C3881       C  0.88098609  0.73781652  0.90478667    -0.33300
C3882       C  0.90416194  0.73767636  0.88271190     0.35800
H3883       H  0.86192653  0.76089881  0.82116075     0.16200
O3884       O  0.81561340  0.76286086  0.85767680    -0.60800
H3885       H  0.88664278  0.73110653  0.92802814     0.16200
O3886       O  0.93283622  0.72839734  0.89126112    -0.60900
H3887       H  0.94224464  0.74654167  0.90121419     0.43200
H3888       H  0.80596970  0.74401990  0.84939776     0.43100
C3889       C  0.90009330  0.89596737  0.49954279    -0.05900
C3890       C  0.87050178  0.90295151  0.48916763    -0.33400
C3891       C  0.84744522  0.88075638  0.48880884     0.35900
C3892       C  0.85342200  0.85071267  0.49933631    -0.06300
C3893       C  0.88231827  0.84452954  0.00631112    -0.33300
C3894       C  0.90549572  0.86661182  0.00692325     0.35800
H3895       H  0.86516340  0.92573213  0.48083601     0.16200
O3896       O  0.81922346  0.88876771  0.47774266    -0.60800
H3897       H  0.88834689  0.82093230  0.01116334     0.16200
O3898       O  0.93468300  0.85735508  0.01356279    -0.60900
H3899       H  0.93581942  0.85708417  0.03627529     0.43200
H3900       H  0.81976943  0.88359602  0.45558816     0.43100
C3901       C  0.85003418  0.64633183  0.49672513    -0.05900
C3902       C  0.84424259  0.61747350  0.50972056    -0.33400
C3903       C  0.86689565  0.59481716  0.51048946     0.35900
C3904       C  0.89616652  0.60082088  0.49827855    -0.06300
C3905       C  0.90578396  0.63189024  0.99707349    -0.33300
C3906       C  0.88375584  0.65511141  0.99711807     0.35800
H3907       H  0.82224929  0.61260157  0.51998105     0.16200
O3908       O  0.86054366  0.56739588  0.52450645    -0.60800
H3909       H  0.92952417  0.63842472  0.99474588     0.16200
O3910       O  0.89327842  0.68486706  0.99368826    -0.60900
H3911       H  0.89943406  0.69161667  0.01452020     0.43200
H3912       H  0.84883626  0.55540286  0.50915156     0.43100
C3913       C  0.60281543  0.89832508  0.49757808    -0.05900
C3914       C  0.63274058  0.90594098  0.50640564    -0.33400
C3915       C  0.65595701  0.88388228  0.50661959     0.35900
C3916       C  0.64956776  0.85334695  0.49794229    -0.06300
C3917       C  0.61833033  0.84440509  0.00446303    -0.33300
C3918       C  0.59536321  0.86667472  0.00508706     0.35800
H3919       H  0.63818870  0.92904859  0.51372870     0.16200
O3920       O  0.68447051  0.89227069  0.51657015    -0.60800
H3921       H  0.61217471  0.82088585  0.00948778     0.16200
O3922       O  0.56616763  0.85762926  0.01194148    -0.60900
H3923       H  0.56447748  0.85955847  0.03454886     0.43200
H3924       H  0.69471373  0.90108681  0.49831695     0.43100
C3925       C  0.59918732  0.60433536  0.50438668    -0.05900
C3926       C  0.62895087  0.59697662  0.51400840    -0.33400
C3927       C  0.65215457  0.61907533  0.51431877     0.35900
C3928       C  0.64603422  0.64938020  0.50466520    -0.06300
C3929       C  0.61833186  0.65557362  0.99367511    -0.33300
C3930       C  0.59502510  0.63366553  0.99307660     0.35800
H3931       H  0.63442552  0.57388399  0.52133713     0.16200
O3932       O  0.68050703  0.61089828  0.52493259    -0.60800
H3933       H  0.61265255  0.67902817  0.98780808     0.16200
O3934       O  0.56623332  0.64271746  0.98461049    -0.60900
H3935       H  0.55697456  0.65141330  0.00346796     0.43200
H3936       H  0.69028094  0.59965107  0.50775937     0.43100
C3937       C  0.89896432  0.50159444  0.89802465    -0.05900
C3938       C  0.86802771  0.00391239  0.90615655    -0.33400
C3939       C  0.84483146  0.00434361  0.88404109     0.35900
C3940       C  0.85169516  0.50208147  0.85331656    -0.06300
C3941       C  0.88253250  0.49957965  0.84461552    -0.33300
C3942       C  0.90595016  0.49942642  0.86644028     0.35800
H3943       H  0.86166701  0.00657336  0.93001938     0.16200
O3944       O  0.81527063  0.00820215  0.89367587    -0.60800
H3945       H  0.88876261  0.49757588  0.82065558     0.16200
O3946       O  0.93555109  0.49743101  0.85637529    -0.60900
H3947       H  0.93985378  0.47515267  0.85482367     0.43200
H3948       H  0.81247102  0.03069759  0.89558572     0.43100
C3949       C  0.64797569  0.49660853  0.85175823    -0.05900
C3950       C  0.65680761  0.99999416  0.88321332    -0.33400
C3951       C  0.63473463  0.00071225  0.90631928     0.35900
C3952       C  0.60266658  0.49799177  0.89810946    -0.06300
C3953       C  0.59480408  0.49183439  0.86746935    -0.33300
C3954       C  0.61703015  0.49091387  0.84448990     0.35800
H3955       H  0.68062238  0.00105743  0.88985002     0.16200
O3956       O  0.64434274  0.00246891  0.93622598    -0.60800
H3957       H  0.57127161  0.48750779  0.86115496     0.16200
O3958       O  0.60803815  0.48450563  0.81502786    -0.60900
H3959       H  0.61010848  0.46195088  0.81290045     0.43200
H3960       H  0.64664350  0.02469666  0.94048015     0.43100
C3961       C  0.60234240  0.50156804  0.60151219    -0.05900
C3962       C  0.59422728  0.49876510  0.63257084    -0.33400
C3963       C  0.61640269  0.49825246  0.65572424     0.35900
C3964       C  0.64778750  0.50053437  0.64825674    -0.06300
C3965       C  0.65521141  0.00216284  0.61763289    -0.33300
C3966       C  0.63315870  0.00194445  0.59443419     0.35800
H3967       H  0.57046996  0.49675845  0.63915684     0.16200
O3968       O  0.60691851  0.49488432  0.68551056    -0.60800
H3969       H  0.67903171  0.00260986  0.61098839     0.16200
O3970       O  0.64284284  0.00263012  0.56452977    -0.60900
H3971       H  0.64642078  0.98087626  0.55889371     0.43200
H3972       H  0.60194458  0.51591597  0.69262583     0.43100
C3973       C  0.85295360  0.50194880  0.64961881    -0.05900
C3974       C  0.84413777  0.00525817  0.61699851    -0.33400
C3975       C  0.86635921  0.00553005  0.59389144     0.35900
C3976       C  0.89829795  0.50088972  0.60307937    -0.06300
C3977       C  0.90589859  0.50852047  0.63348973    -0.33300
C3978       C  0.88367812  0.50909861  0.65659377     0.35800
H3979       H  0.82125886  0.01283589  0.61136350     0.16200
O3980       O  0.85815555  0.01531165  0.56513714    -0.60800
H3981       H  0.92919217  0.51433261  0.63949475     0.16200
O3982       O  0.89221646  0.51765521  0.68565399    -0.60900
H3983       H  0.90084246  0.49887205  0.69511008     0.43200
H3984       H  0.86217261  0.03769234  0.56507165     0.43100
C3985       C  0.49688592  0.60166679  0.89755925    -0.05900
C3986       C  0.49164984  0.63235221  0.90598953    -0.33400
C3987       C  0.49156527  0.65575601  0.88412174     0.35900
C3988       C  0.49653736  0.64878103  0.85286788    -0.06300
C3989       C  0.00894447  0.61766661  0.84535318    -0.33300
C3990       C  0.00949258  0.59453843  0.86750881     0.35800
H3991       H  0.48760839  0.63844594  0.92973862     0.16200
O3992       O  0.48587114  0.68519706  0.89364532    -0.60800
H3993       H  0.01634068  0.61215478  0.82228455     0.16200
O3994       O  0.01962309  0.56593268  0.85919585    -0.60900
H3995       H  0.04186847  0.56606068  0.86346194     0.43200
H3996       H  0.50586521  0.69319839  0.90072475     0.43100
C3997       C  0.50361538  0.89865516  0.89729907    -0.05900
C3998       C  0.98929790  0.86872444  0.90558377    -0.33400
C3999       C  0.98848573  0.84563716  0.88323049     0.35900
C4000       C  0.50180448  0.85213435  0.85198033    -0.06300
C4001       C  0.51122125  0.88199495  0.84449784    -0.33300
C4002       C  0.51230687  0.90507998  0.86676955     0.35800
H4003       H  0.97932036  0.86413888  0.92784856     0.16200
O4004       O  0.97471042  0.81826575  0.89019737    -0.60800
H4005       H  0.51810123  0.88753390  0.82129089     0.16200
O4006       O  0.52289381  0.93351115  0.85855373    -0.60900
H4007       H  0.50515201  0.94410665  0.84918926     0.43200
H4008       H  0.99031493  0.80636287  0.90160623     0.43100
C4009       C  0.49777353  0.85142522  0.64719480    -0.05900
C4010       C  0.00174728  0.88214184  0.65585015    -0.33400
C4011       C  0.00205632  0.90530362  0.63368083     0.35900
C4012       C  0.49811866  0.89841902  0.60230053    -0.06300
C4013       C  0.49043599  0.86811582  0.59439636    -0.33300
C4014       C  0.49001134  0.84483353  0.61643193     0.35800
H4015       H  0.00344267  0.88873998  0.67975168     0.16200
O4016       O  0.00413088  0.93516874  0.64336188    -0.60800
H4017       H  0.48456466  0.86231407  0.57096700     0.16200
O4018       O  0.48198655  0.81577136  0.60745799    -0.60900
H4019       H  0.45963678  0.81449108  0.61085965     0.43200
H4020       H  0.02631943  0.93929167  0.64522971     0.43100
C4021       C  0.49902001  0.60230807  0.60151548    -0.05900
C4022       C  0.99453901  0.59447813  0.63222716    -0.33400
C4023       C  0.99457773  0.61650273  0.65548315     0.35900
C4024       C  0.49907116  0.64680787  0.64888929    -0.06300
C4025       C  0.49522235  0.65545094  0.61807032    -0.33300
C4026       C  0.49532287  0.63370807  0.59456596     0.35800
H4027       H  0.98723221  0.57141463  0.63779036     0.16200
O4028       O  0.98587065  0.60780532  0.68441382    -0.60800
H4029       H  0.49208305  0.67930609  0.61191917     0.16200
O4030       O  0.49127907  0.64358942  0.56498172    -0.60900
H4031       H  0.51202820  0.64882680  0.55755267     0.43200
H4032       H  0.96345115  0.61095890  0.68505504     0.43100
loop_ 
_geom_bond_atom_site_label_1 
_geom_bond_atom_site_label_2 
_geom_bond_distance 
_geom_bond_site_symmetry_2 
_ccdc_geom_bond_type 
O1          Zr37   2.430       .  S
O1           C12   1.292       .  A
O2          Zr36   2.432   1_655  S
O2           C13   1.291       .  A
O3           Zr9   2.446   1_455  S
O3           C14   1.294       .  A
O4        Zr2025   2.434       .  S
O4           C15   1.292       .  A
O5          Zr39   2.438       .  S
O5           C15   1.292       .  A
O6          Zr38   2.432       .  S
O6           C14   1.292       .  A
O7         Zr513   2.438       .  S
O7           C13   1.293       .  A
O8           Zr9   2.425   1_455  S
O8           C12   1.290       .  A
Zr9        O2020   2.446       .  S
Zr9         O511   2.434   1_554  S
Zr9          O11   2.339   1_655  S
Zr9        O2530   2.336   1_554  S
Zr9        O2035   2.341       .  S
Zr9         O521   2.339   1_654  S
O10       Zr2529   2.337       .  S
O10       Zr2052   2.337   1_545  S
O10        Zr543   2.342   1_545  S
O11         Zr37   2.339       .  S
O11         Zr38   2.336       .  S
C12         C493   1.473       .  S
C13         C457   1.481       .  S
C14         C397   1.486       .  S
C15         C376   1.486       .  S
H16          O17   0.966       .  S
O17         Zr36   2.337       .  S
O17        Zr513   2.341   1_455  S
O17        Zr542   2.338       .  S
H18          O19   0.965       .  S
O19         Zr39   2.339   1_554  S
O19       Zr2025   2.338   1_554  S
O19       Zr2053   2.338       .  S
O20       Zr1044   2.426   1_455  S
O20          C43   1.290       .  A
O21       Zr1045   2.419   1_655  S
O21          C44   1.289       .  A
O22        Zr542   2.432       .  S
O22          C45   1.291   1_545  A
O23        Zr543   2.440       .  S
O23          C46   1.293       .  A
O24         Zr39   2.439   1_554  S
O24          C47   1.292       .  A
O25         Zr38   2.421       .  S
O25          C48   1.289       .  A
O26         Zr40   2.431       .  S
O26          C49   1.291   1_554  A
O27       Zr2056   2.435   1_554  S
O27          C50   1.292       .  A
O28       Zr1046   2.454   1_556  S
O28          C49   1.295       .  A
O29       Zr1047   2.435   1_556  S
O29          C50   1.293   1_556  A
O30         Zr36   2.437   1_565  S
O30          C45   1.293       .  A
O31         Zr37   2.444       .  S
O31          C48   1.294       .  A
O32       Zr2053   2.441       .  S
O32          C47   1.294       .  A
O33       Zr2052   2.442       .  S
O33          C46   1.293       .  A
O34        Zr544   2.435   1_455  S
O34          C43   1.292       .  A
O35         Zr40   2.434   1_655  S
O35          C44   1.293       .  A
Zr36       O1028   2.423   1_545  S
Zr36       O2049   2.435   1_445  S
Zr36       O2026   2.335   1_455  S
Zr36       O1050   2.337   1_545  S
Zr36       O3078   2.339   1_445  S
Zr37       O1029   2.440   1_545  S
Zr37       O2048   2.442   1_445  S
Zr37       O2035   2.344   1_455  S
Zr37       O3065   2.338   1_445  S
Zr37       O1060   2.338   1_545  S
Zr38        O526   2.438   1_554  S
Zr38       O1036   2.435   1_544  S
Zr38        O521   2.334   1_554  S
Zr38       O1554   2.334   1_544  S
Zr38       O1060   2.344   1_545  S
Zr39        O527   2.437   1_545  S
Zr39       O1037   2.445   1_545  S
Zr39        O514   2.338       .  S
Zr39       O1049   2.336   1_546  S
Zr39       O1566   2.338   1_545  S
Zr40       O2043   2.431   1_454  S
Zr40        O538   2.436   1_554  S
Zr40         O52   2.338       .  S
Zr40       O2057   2.338   1_455  S
Zr40        O546   2.337   1_554  S
Zr40       O2574   2.337   1_454  S
O41       Zr3061   2.337       .  S
O41       Zr1047   2.338       .  S
O41       Zr2056   2.337   1_554  S
O42       Zr1044   2.336   1_455  S
O42       Zr1550   2.338       .  S
O42        Zr544   2.340   1_455  S
C43         C469   1.485       .  S
C44         C484   1.483       .  S
C45         C424   1.489       .  S
C46         C409   1.490       .  S
C47         C448   1.492       .  S
C48         C433   1.482       .  S
C49         C385   1.484       .  S
C50         C361   1.490       .  S
H51          O52   0.966       .  S
O52       Zr1045   2.345       .  S
O52       Zr1046   2.343       .  S
H53          O54   0.966       .  S
O54       Zr3060   2.341       .  S
O54       Zr1551   2.339       .  S
O54       Zr2560   2.335       .  S
O55         Zr91   2.432       .  S
O55          C66   1.292       .  A
O56         Zr90   2.423       .  S
O56          C67   1.289       .  A
O57         Zr63   2.433       .  S
O57          C68   1.291       .  A
O58       Zr2079   2.442       .  S
O58          C69   1.294       .  A
O59         Zr93   2.423       .  S
O59          C69   1.289       .  A
O60         Zr92   2.438       .  S
O60          C68   1.293       .  A
O61         Zr63   2.436   1_655  S
O61          C67   1.293       .  A
O62         Zr63   2.420       .  S
O62          C66   1.289       .  A
Zr63       O2074   2.441   1_455  S
Zr63         O65   2.340       .  S
Zr63         O71   2.335       .  S
Zr63       O2080   2.330   1_455  S
Zr63       O2089   2.339   1_455  S
O64         Zr93   2.332       .  S
O64       Zr2079   2.334       .  S
O64       Zr2106   2.333       .  S
O65         Zr91   2.334       .  S
O65         Zr92   2.339       .  S
C66         C496   1.474       .  S
C67         C460   1.479       .  S
C68         C289   1.487       .  S
C69         C265   1.486       .  S
H70          O71   0.965       .  S
O71         Zr90   2.334   1_455  S
O71         Zr92   2.338       .  S
H72          O73   0.966       .  S
O73         Zr93   2.337       .  S
O73       Zr2079   2.333       .  S
O73       Zr2107   2.341       .  S
O74         Zr90   2.424       .  S
O74          C97   1.290       .  A
O75         Zr91   2.422   1_655  S
O75          C98   1.289       .  A
O76         Zr92   2.427       .  S
O76          C99   1.291       .  A
O77         Zr93   2.435       .  S
O77         C100   1.292       .  A
O78         Zr93   2.432       .  S
O78         C101   1.291       .  A
O79         Zr92   2.423       .  S
O79         C102   1.289       .  A
O80         Zr94   2.442   1_455  S
O80         C103   1.293       .  A
O81       Zr2110   2.447       .  S
O81         C104   1.295       .  A
O82         Zr92   2.440       .  S
O82         C103   1.293       .  A
O83         Zr93   2.423       .  S
O83         C104   1.289       .  A
O84         Zr90   2.442   1_455  S
O84          C99   1.293       .  A
O85         Zr91   2.449       .  S
O85         C102   1.295       .  A
O86       Zr2107   2.442       .  S
O86         C101   1.294       .  A
O87       Zr2106   2.431       .  S
O87         C100   1.291       .  A
O88         Zr94   2.431       .  S
O88          C97   1.292       .  A
O89         Zr94   2.432       .  S
O89          C98   1.292       .  A
Zr90       O2103   2.443       .  S
Zr90         O96   2.338   1_655  S
Zr90       O2080   2.332       .  S
Zr90       O2124   2.336       .  S
Zr91       O2102   2.445   1_455  S
Zr91        O106   2.341       .  S
Zr91       O2089   2.343   1_455  S
Zr91       O2111   2.340   1_455  S
Zr92         O96   2.335       .  S
Zr92        O106   2.338       .  S
Zr93         O95   2.339       .  S
Zr93        O108   2.339       .  S
Zr94       O2097   2.436       .  S
Zr94         O96   2.336   1_655  S
Zr94        O106   2.338   1_655  S
Zr94       O2111   2.337       .  S
Zr94       O2124   2.340       .  S
O95       Zr2107   2.340       .  S
O95       Zr2110   2.334       .  S
C97         C472   1.484       .  S
C98         C481   1.483       .  S
C99         C337   1.485       .  S
C100        C349   1.486       .  S
C101        C313   1.484       .  S
C102        C325   1.489       .  S
C103        C301   1.494       .  S
C104        C277   1.489       .  S
H105        O106   0.966       .  S
H107        O108   0.966       .  S
O108      Zr2106   2.342       .  S
O108      Zr2110   2.343       .  S
O109       Zr145   2.427       .  S
O109        C120   1.290       .  A
O110       Zr144   2.415       .  S
O110        C121   1.288       .  A
O111       Zr117   2.423       .  S
O111        C122   1.290       .  A
O112      Zr1125   2.426       .  S
O112        C123   1.290       .  A
O113       Zr147   2.427       .  S
O113        C123   1.291       .  A
O114       Zr146   2.434       .  S
O114        C122   1.292       .  A
O115       Zr117   2.449       .  S
O115        C121   1.296       .  A
O116       Zr117   2.456       .  S
O116        C120   1.296       .  A
Zr117      O1120   2.432       .  S
Zr117       O119   2.335       .  S
Zr117       O125   2.344       .  S
Zr117      O1126   2.339       .  S
Zr117      O1135   2.339       .  S
O118       Zr147   2.336       .  S
O118      Zr1125   2.337       .  S
O118      Zr1152   2.337       .  S
O119       Zr145   2.334       .  S
O119       Zr146   2.337       .  S
C120       C1453   1.490       .  S
C121       C1444   1.486       .  S
C122        C232   1.478       .  S
C123        C217   1.478       .  S
H124        O125   0.965       .  S
O125       Zr144   2.339       .  S
O125       Zr146   2.336       .  S
H126        O127   0.966       .  S
O127       Zr147   2.336       .  S
O127      Zr1125   2.336       .  S
O127      Zr1153   2.334   1_545  S
O128       Zr144   2.435       .  S
O128        C151   1.291       .  A
O129       Zr145   2.430       .  S
O129        C152   1.291       .  A
O130       Zr146   2.435       .  S
O130        C153   1.291       .  A
O131       Zr147   2.433       .  S
O131        C154   1.291       .  A
O132       Zr147   2.439       .  S
O132        C155   1.293       .  A
O133       Zr146   2.434       .  S
O133        C156   1.292       .  A
O134       Zr148   2.434       .  S
O134        C157   1.292       .  A
O135      Zr1156   2.426   1_545  S
O135        C158   1.290       .  A
O136       Zr146   2.442       .  S
O136        C157   1.294       .  A
O137       Zr147   2.426       .  S
O137        C158   1.291       .  A
O138       Zr144   2.441       .  S
O138        C153   1.293       .  A
O139       Zr145   2.431       .  S
O139        C156   1.291       .  A
O140      Zr1153   2.427   1_545  S
O140        C155   1.290       .  A
O141      Zr1152   2.440       .  S
O141        C154   1.293       .  A
O142       Zr148   2.446       .  S
O142        C151   1.294       .  A
O143       Zr148   2.437       .  S
O143        C152   1.292       .  A
Zr144      O1149   2.440       .  S
Zr144       O150   2.332       .  S
Zr144      O1126   2.342       .  S
Zr144      O1170   2.333       .  S
Zr145      O1148   2.433       .  S
Zr145       O160   2.339       .  S
Zr145      O1135   2.339       .  S
Zr145      O1157   2.336       .  S
Zr146       O150   2.336       .  S
Zr146       O160   2.338       .  S
Zr147       O149   2.333       .  S
Zr147       O162   2.339       .  S
Zr148      O1143   2.426       .  S
Zr148       O150   2.332       .  S
Zr148       O160   2.341       .  S
Zr148      O1157   2.343       .  S
Zr148      O1170   2.340       .  S
O149      Zr1153   2.331   1_545  S
O149      Zr1156   2.334   1_545  S
C151       C1429   1.489       .  S
C152       C1420   1.482       .  S
C153        C304   1.493       .  S
C154        C292   1.487       .  S
C155        C268   1.487       .  S
C156        C280   1.488       .  S
C157        C241   1.484       .  S
C158        C253   1.482       .  S
H159        O160   0.966       .  S
H161        O162   0.966       .  S
O162      Zr1152   2.333       .  S
O162      Zr1156   2.338   1_545  S
O163       Zr199   2.434       .  S
O163        C174   1.291       .  A
O164       Zr198   2.435       .  S
O164        C175   1.291       .  A
O165       Zr675   2.432       .  S
O165        C176   1.291       .  A
O166       Zr171   2.445       .  S
O166        C177   1.294       .  A
O167       Zr201   2.433       .  S
O167        C177   1.291       .  A
O168       Zr200   2.439       .  S
O168        C176   1.293       .  A
O169       Zr171   2.439       .  S
O169        C175   1.293       .  A
O170       Zr171   2.434       .  S
O170        C174   1.292       .  A
Zr171       O669   2.437       .  S
Zr171       O172   2.338       .  S
Zr171       O181   2.337       .  S
Zr171       O677   2.336       .  S
Zr171       O683   2.342       .  S
O172       Zr198   2.338       .  S
O172       Zr201   2.337       .  S
O173       Zr200   2.338       .  S
O173       Zr675   2.340       .  S
O173       Zr703   2.341       .  S
C174        C904   1.485       .  S
C175        C892   1.491       .  S
C176        C328   1.490       .  S
C177        C340   1.487       .  S
H178        O179   0.966       .  S
O179       Zr200   2.338       .  S
O179       Zr675   2.339       .  S
O179       Zr702   2.340       .  S
H180        O181   0.966       .  S
O181       Zr199   2.340       .  S
O181       Zr201   2.342       .  S
O182       Zr198   2.437       .  S
O182        C205   1.292       .  A
O183       Zr199   2.434       .  S
O183        C206   1.292       .  A
O184       Zr200   2.419       .  S
O184        C207   1.288       .  A
O185       Zr201   2.439       .  S
O185        C208   1.292       .  A
O186       Zr201   2.427       .  S
O186        C209   1.290       .  A
O187       Zr200   2.418       .  S
O187        C210   1.288       .  A
O188       Zr706   2.439       .  S
O188        C211   1.292       .  A
O189       Zr202   2.427       .  S
O189        C212   1.291       .  A
O190       Zr200   2.438       .  S
O190        C211   1.293       .  A
O191       Zr201   2.440       .  S
O191        C212   1.293       .  A
O192       Zr702   2.438       .  S
O192        C207   1.293       .  A
O193       Zr703   2.435       .  S
O193        C210   1.293       .  A
O194       Zr199   2.431       .  S
O194        C209   1.292       .  A
O195       Zr198   2.443       .  S
O195        C208   1.294       .  A
O196       Zr202   2.444       .  S
O196        C205   1.294       .  A
O197       Zr202   2.440       .  S
O197        C206   1.293       .  A
Zr198       O696   2.441       .  S
Zr198       O216   2.342       .  S
Zr198       O683   2.342       .  S
Zr198       O708   2.338       .  S
Zr199       O697   2.439       .  S
Zr199       O203   2.341       .  S
Zr199       O677   2.331       .  S
Zr199       O718   2.340       .  S
Zr200       O204   2.337       .  S
Zr200       O214   2.338       .  S
Zr201       O203   2.338       .  S
Zr201       O216   2.335       .  S
Zr202       O692   2.420       .  S
Zr202       O203   2.335       .  S
Zr202       O216   2.338       .  S
Zr202       O708   2.337       .  S
Zr202       O718   2.341       .  S
O204       Zr702   2.339       .  S
O204       Zr706   2.340       .  S
C205        C868   1.488       .  S
C206        C877   1.489       .  S
C207        C229   1.480       .  S
C208        C244   1.484       .  S
C209        C256   1.483       .  S
C210        C220   1.478       .  S
C211        C316   1.484       .  S
C212        C352   1.486       .  S
H213        O214   0.966       .  S
O214       Zr703   2.340       .  S
O214       Zr706   2.339       .  S
H215        O216   0.966       .  S
C217        C218   1.405       .  A
C217        C222   1.412       .  A
C218        C219   1.396       .  A
C218        H223   1.084       .  S
C219        C220   1.413       .  A
C219        O224   1.372       .  S
C220        C221   1.404       .  A
C221        C222   1.394       .  A
C221        H225   1.084       .  S
C222        O226   1.372       .  S
O224        H228   0.992       .  S
O226        H227   0.992       .  S
C229        C230   1.404       .  A
C229        C234   1.413       .  A
C230        C231   1.396       .  A
C230        H235   1.083       .  S
C231        C232   1.412       .  A
C231        O236   1.372       .  S
C232        C233   1.404       .  A
C233        C234   1.396       .  A
C233        H237   1.084       .  S
C234        O238   1.372       .  S
O236        H240   0.992       .  S
O238        H239   0.992       .  S
C241        C242   1.404       .  A
C241        C246   1.413       .  A
C242        C243   1.399       .  A
C242        H247   1.084       .  S
C243        C244   1.412       .  A
C243        O248   1.372       .  S
C244        C245   1.405       .  A
C245        C246   1.401       .  A
C245        H249   1.083       .  S
C246        O250   1.372       .  S
O248        H252   0.992       .  S
O250        H251   0.992       .  S
C253        C254   1.406       .  A
C253        C258   1.412       .  A
C254        C255   1.394       .  A
C254        H259   1.083       .  S
C255        C256   1.412       .  A
C255        O260   1.372       .  S
C256        C257   1.407       .  A
C257        C258   1.396       .  A
C257        H261   1.083       .  S
C258        O262   1.372       .  S
O260        H264   0.992       .  S
O262        H263   0.992       .  S
C265        C266   1.404       .  A
C265        C270   1.414       .  A
C266        C267   1.398       .  A
C266        H271   1.083       .  S
C267        C268   1.414       .  A
C267        O272   1.372       .  S
C268        C269   1.405       .  A
C269        C270   1.398       .  A
C269        H273   1.083       .  S
C270        O274   1.372       .  S
O272        H276   0.992       .  S
O274        H275   0.992       .  S
C277        C278   1.405       .  A
C277        C282   1.415       .  A
C278        C279   1.397       .  A
C278        H283   1.083       .  S
C279        C280   1.414       .  A
C279        O284   1.372       .  S
C280        C281   1.407       .  A
C281        C282   1.399       .  A
C281        H285   1.083       .  S
C282        O286   1.372       .  S
O284        H288   0.992       .  S
O286        H287   0.992       .  S
C289        C290   1.406       .  A
C289        C294   1.413       .  A
C290        C291   1.400       .  A
C290        H295   1.083       .  S
C291        C292   1.413       .  A
C291        O296   1.372       .  S
C292        C293   1.405       .  A
C293        C294   1.398       .  A
C293        H297   1.083       .  S
C294        O298   1.372       .  S
O296        H300   0.992       .  S
O298        H299   0.992       .  S
C301        C302   1.407       .  A
C301        C306   1.415       .  A
C302        C303   1.400       .  A
C302        H307   1.083       .  S
C303        C304   1.415       .  A
C303        O308   1.372       .  S
C304        C305   1.407       .  A
C305        C306   1.400       .  A
C305        H309   1.083       .  S
C306        O310   1.371       .  S
O308        H312   0.992       .  S
O310        H311   0.992       .  S
C313        C314   1.405       .  A
C313        C318   1.413       .  A
C314        C315   1.399       .  A
C314        H319   1.083       .  S
C315        C316   1.412       .  A
C315        O320   1.372       .  S
C316        C317   1.406       .  A
C317        C318   1.399       .  A
C317        H321   1.084       .  S
C318        O322   1.372       .  S
O320        H324   0.992       .  S
O322        H323   0.992       .  S
C325        C326   1.404       .  A
C325        C330   1.416       .  A
C326        C327   1.396       .  A
C326        H331   1.083       .  S
C327        C328   1.414       .  A
C327        O332   1.372       .  S
C328        C329   1.407       .  A
C329        C330   1.400       .  A
C329        H333   1.083       .  S
C330        O334   1.372       .  S
O332        H336   0.992       .  S
O334        H335   0.992       .  S
C337        C338   1.406       .  A
C337        C342   1.412       .  A
C338        C339   1.398       .  A
C338        H343   1.084       .  S
C339        C340   1.413       .  A
C339        O344   1.372       .  S
C340        C341   1.407       .  A
C341        C342   1.400       .  A
C341        H345   1.083       .  S
C342        O346   1.372       .  S
O344        H348   0.992       .  S
O346        H347   0.992       .  S
C349        C350   1.407       .  A
C349        C354   1.412       .  A
C350        C351   1.399       .  A
C350        H355   1.083       .  S
C351        C352   1.412       .  A
C351        O356   1.371       .  S
C352        C353   1.407       .  A
C353        C354   1.397       .  A
C353        H357   1.083       .  S
C354        O358   1.372       .  S
O356        H360   0.992       .  S
O358        H359   0.992       .  S
C361        C362   1.407   1_554  A
C361        C870   1.413       .  A
C362        C363   1.398       .  A
C362        H367   1.083       .  S
C363        C364   1.413   1_556  A
C363        O368   1.372       .  S
C364        C709   1.491       .  S
C364        C869   1.409       .  A
C365        C366   1.401       .  A
C365        C868   1.406       .  A
C365        H369   1.083       .  S
C366        C865   1.413       .  A
C366        O370   1.372       .  S
O368        H372   0.992       .  S
O370        H371   0.992       .  S
C373        C710   1.488       .  S
C373        C374   1.405   1_554  A
C373        C882   1.414       .  A
C374        C375   1.399       .  A
C374        H379   1.083       .  S
C375        C376   1.412       .  A
C375        O380   1.372       .  S
C376        C881   1.406   1_556  A
C377        C378   1.397       .  A
C377        C880   1.405       .  A
C377        H381   1.083       .  S
C378        C877   1.413       .  A
C378        O382   1.371       .  S
O380        H384   0.992       .  S
O382        H383   0.992       .  S
C385        C386   1.405       .  A
C385        C894   1.413   1_556  A
C386        C387   1.402       .  A
C386        H391   1.084       .  S
C387        C388   1.411       .  A
C387        O392   1.372       .  S
C388        C679   1.481       .  S
C388        C893   1.404   1_556  A
C389        C390   1.399       .  A
C389        C892   1.406       .  A
C389        H393   1.083       .  S
C390        C889   1.415       .  A
C390        O394   1.372       .  S
O392        H396   0.992       .  S
O394        H395   0.992       .  S
C397        C398   1.407       .  A
C397        C906   1.411   1_554  A
C398        C399   1.400       .  A
C398        H403   1.084       .  S
C399        C400   1.410       .  A
C399        O404   1.372       .  S
C400        C678   1.486       .  S
C400        C905   1.408   1_554  A
C401        C402   1.398       .  A
C401        C904   1.406       .  A
C401        H405   1.083       .  S
C402        C901   1.412       .  A
C402        O406   1.372       .  S
O404        H408   0.992       .  S
O406        H407   0.992       .  S
C409        C414   1.413       .  A
C409       C1418   1.408   1_565  A
C410        C411   1.399       .  A
C410       C1417   1.406       .  A
C410        H415   1.084       .  S
C411       C1420   1.411       .  A
C411        O416   1.372       .  S
C412       C1160   1.488       .  S
C412        C413   1.406   1_545  A
C412       C1419   1.413       .  A
C413        C414   1.399       .  A
C413        H417   1.083       .  S
C414        O418   1.372       .  S
O416        H420   0.992       .  S
O418        H419   0.992       .  S
C421       C1159   1.488       .  S
C421        C426   1.413       .  A
C421       C1430   1.407   1_565  A
C422        C423   1.400       .  A
C422       C1429   1.405       .  A
C422        H427   1.083       .  S
C423       C1432   1.415       .  A
C423        O428   1.372       .  S
C424        C425   1.407       .  A
C424       C1431   1.414   1_565  A
C425        C426   1.399       .  A
C425        H429   1.083       .  S
C426        O430   1.372       .  S
O428        H432   0.992       .  S
O430        H431   0.992       .  S
C433        C434   1.404       .  A
C433       C1446   1.414   1_545  A
C434        C435   1.397       .  A
C434        H439   1.084       .  S
C435        C436   1.414       .  A
C435        O440   1.372       .  S
C436       C1129   1.480       .  S
C436       C1445   1.403   1_545  A
C437        C438   1.396       .  A
C437       C1444   1.403       .  A
C437        H441   1.083       .  S
C438       C1441   1.415       .  A
C438        O442   1.372       .  S
O440        H444   0.992       .  S
O442        H443   0.992       .  S
C445       C1128   1.492       .  S
C445        C450   1.415       .  A
C445       C1454   1.406   1_545  A
C446        C447   1.400       .  A
C446       C1453   1.405       .  A
C446        H451   1.083       .  S
C447       C1456   1.414       .  A
C447        O452   1.372       .  S
C448        C449   1.407       .  A
C448       C1455   1.414   1_545  A
C449        C450   1.401       .  A
C449        H453   1.083       .  S
C450        O454   1.372       .  S
O452        H456   0.992       .  S
O454        H455   0.992   1_545  S
C457        C458   1.404       .  A
C457       C2478   1.412   1_655  A
C458        C459   1.399       .  A
C458        H463   1.084       .  S
C459        C460   1.412       .  A
C459        O464   1.372       .  S
C460       C2477   1.404   1_655  A
C461        C462   1.398       .  A
C461       C2476   1.405       .  A
C461        H465   1.084       .  S
C462       C2473   1.412       .  A
C462        O466   1.372       .  S
O464        H468   0.992       .  S
O466        H467   0.992       .  S
C469        C474   1.413       .  A
C469       C2486   1.406   1_455  A
C470        C471   1.400       .  A
C470       C2485   1.406       .  A
C470        H475   1.084       .  S
C471       C2488   1.412       .  A
C471        O476   1.372       .  S
C472        C473   1.405   1_655  A
C472       C2487   1.413       .  A
C473        C474   1.397       .  A
C473        H477   1.083       .  S
C474        O478   1.372       .  S
O476        H480   0.992       .  S
O478        H479   0.991   1_455  S
C481        C486   1.413       .  A
C481       C2498   1.405       .  A
C482        C483   1.398       .  A
C482       C2497   1.405       .  A
C482        H487   1.083       .  S
C483       C2500   1.414       .  A
C483        O488   1.372       .  S
C484        C485   1.405       .  A
C484       C2499   1.414       .  A
C485        C486   1.394       .  A
C485        H489   1.083   1_655  S
C486        O490   1.372   1_655  S
O488        H492   0.992       .  S
O490        H491   0.992   1_455  S
C493        C498   1.411       .  A
C493       C2510   1.403   1_455  A
C494        C495   1.397       .  A
C494       C2509   1.403       .  A
C494        H499   1.084       .  S
C495       C2512   1.409       .  A
C495        O500   1.371       .  S
C496        C497   1.404       .  A
C496       C2511   1.412   1_455  A
C497        C498   1.395       .  A
C497        H501   1.084       .  S
C498        O502   1.372       .  S
O500        H504   0.992       .  S
O502        H503   0.992       .  S
O505       Zr541   2.433       .  S
O505        C516   1.292   1_655  A
O506       Zr540   2.431   1_655  S
O506        C517   1.291       .  A
O507       Zr513   2.436   1_455  S
O507        C518   1.292       .  A
O508      Zr2529   2.452       .  S
O508        C519   1.296       .  A
O509       Zr543   2.422   1_545  S
O509        C519   1.289       .  A
O510       Zr542   2.433       .  S
O510        C518   1.292       .  A
O511        C517   1.293       .  A
O512       Zr513   2.431       .  S
O512        C516   1.291   1_655  A
Zr513      O2524   2.434       .  S
Zr513      O2026   2.337       .  S
Zr513       O515   2.334   1_655  S
Zr513      O2539   2.343       .  S
O514      Zr2025   2.336       .  S
O514      Zr2556   2.335       .  S
O515       Zr541   2.337   1_455  S
O515       Zr542   2.335       .  S
C516        C997   1.483       .  S
C517        C961   1.485       .  S
C518        C901   1.486       .  S
C519        C880   1.488       .  S
H520        O521   0.966       .  S
O521       Zr540   2.336       .  S
H522        O523   0.966       .  S
O523      Zr2529   2.343       .  S
O523      Zr2557   2.337       .  S
O523       Zr543   2.343   1_545  S
O524      Zr1548   2.420       .  S
O524        C547   1.288       .  A
O525      Zr1549   2.432   1_655  S
O525        C548   1.291       .  A
O526        C549   1.292       .  A
O527        C550   1.293       .  A
O528       Zr543   2.444       .  S
O528        C551   1.293       .  A
O529       Zr542   2.422       .  S
O529        C552   1.289       .  A
O530       Zr544   2.431   1_455  S
O530        C553   1.291       .  A
O531      Zr2560   2.441       .  S
O531        C554   1.293       .  A
O532      Zr1550   2.446       .  S
O532        C553   1.295       .  A
O533      Zr1551   2.436       .  S
O533        C554   1.292       .  A
O534       Zr540   2.441       .  S
O534        C549   1.293       .  A
O535       Zr541   2.454   1_455  S
O535        C552   1.296       .  A
O536      Zr2557   2.442   1_565  S
O536        C551   1.293       .  A
O537      Zr2556   2.444   1_565  S
O537        C550   1.293       .  A
O538        C547   1.293       .  A
O539       Zr544   2.435       .  S
O539        C548   1.293       .  A
Zr540      O1532   2.442   1_545  S
Zr540      O2553   2.430   1_455  S
Zr540      O2530   2.340   1_455  S
Zr540      O1554   2.333   1_545  S
Zr540      O3582   2.339   1_445  S
Zr541      O1533   2.433   1_545  S
Zr541      O2552   2.454   1_545  S
Zr541      O2539   2.344       .  S
Zr541      O3569   2.337   1_545  S
Zr541      O1564   2.342   1_645  S
Zr542      O1540   2.434   1_545  S
Zr542      O1050   2.333   1_545  S
Zr542      O1564   2.343   1_545  S
Zr543      O1541   2.434       .  S
Zr543      O1553   2.331       .  S
Zr543      O1062   2.337       .  S
Zr544      O2547   2.440       .  S
Zr544      O2561   2.339       .  S
Zr544      O2070   2.334       .  S
Zr544       O556   2.341   1_655  S
O545      Zr3565   2.343       .  S
O545      Zr1551   2.339       .  S
O545      Zr2560   2.337       .  S
O546      Zr1548   2.335       .  S
O546      Zr1046   2.335   1_556  S
C547        C973   1.483       .  S
C548        C988   1.484       .  S
C549        C928   1.486       .  S
C550        C913   1.492       .  S
C551        C952   1.489       .  S
C552        C937   1.491       .  S
C553        C889   1.492       .  S
C554        C865   1.488       .  S
H555        O556   0.966       .  S
O556      Zr1549   2.340       .  S
O556      Zr1550   2.342       .  S
H557        O558   0.966       .  S
O558      Zr3564   2.339       .  S
O558      Zr1047   2.342   1_556  S
O558      Zr2056   2.342       .  S
O559       Zr595   2.438       .  S
O559        C570   1.293       .  A
O560       Zr594   2.429       .  S
O560        C571   1.290       .  A
O561       Zr567   2.431   1_455  S
O561        C572   1.291       .  A
O562      Zr2583   2.443       .  S
O562        C573   1.294       .  A
O563       Zr597   2.427       .  S
O563        C573   1.290       .  A
O564       Zr596   2.437       .  S
O564        C572   1.293       .  A
O565       Zr567   2.436       .  S
O565        C571   1.293       .  A
O566       Zr567   2.431       .  S
O566        C570   1.291   1_655  A
Zr567      O2578   2.445       .  S
Zr567      O2584   2.335       .  S
Zr567       O569   2.339   1_655  S
Zr567      O2593   2.339       .  S
Zr567       O575   2.343   1_655  S
O568      Zr2583   2.332       .  S
O568      Zr2610   2.333       .  S
O568       Zr597   2.330       .  S
O569       Zr595   2.332       .  S
O569       Zr596   2.339       .  S
C570       C1000   1.485       .  S
C571        C964   1.486       .  S
C572        C793   1.488       .  S
C573        C769   1.487       .  S
H574        O575   0.966       .  S
O575       Zr594   2.330   1_455  S
O575       Zr596   2.339       .  S
H576        O577   0.966       .  S
O577      Zr2583   2.338       .  S
O577      Zr2611   2.343       .  S
O577       Zr597   2.340       .  S
O578       Zr594   2.415   1_455  S
O578        C601   1.288       .  A
O579       Zr595   2.429       .  S
O579        C602   1.291   1_455  A
O580       Zr596   2.440       .  S
O580        C603   1.293       .  A
O581       Zr597   2.443       .  S
O581        C604   1.294       .  A
O582       Zr597   2.432       .  S
O582        C605   1.291       .  A
O583       Zr596   2.430       .  S
O583        C606   1.291       .  A
O584       Zr598   2.434   1_455  S
O584        C607   1.292       .  A
O585      Zr2614   2.445       .  S
O585        C608   1.294       .  A
O586       Zr596   2.445       .  S
O586        C607   1.294       .  A
O587       Zr597   2.425       .  S
O587        C608   1.290       .  A
O588       Zr594   2.442   1_455  S
O588        C603   1.293       .  A
O589       Zr595   2.451       .  S
O589        C606   1.296       .  A
O590      Zr2611   2.441       .  S
O590        C605   1.294       .  A
O591      Zr2610   2.432       .  S
O591        C604   1.291       .  A
O592       Zr598   2.441       .  S
O592        C601   1.294   1_655  A
O593       Zr598   2.443       .  S
O593        C602   1.294       .  A
Zr594      O2607   2.430       .  S
Zr594      O2584   2.337       .  S
Zr594       O600   2.334   1_655  S
Zr594      O2628   2.340       .  S
Zr595      O2606   2.445   1_455  S
Zr595      O2593   2.345   1_455  S
Zr595      O2615   2.339   1_455  S
Zr595       O610   2.345       .  S
Zr596       O600   2.332       .  S
Zr596       O610   2.345       .  S
Zr597       O599   2.339       .  S
Zr597       O612   2.337       .  S
Zr598      O2601   2.444       .  S
Zr598      O2615   2.333       .  S
Zr598       O600   2.340   1_655  S
Zr598      O2628   2.337       .  S
Zr598       O610   2.345   1_655  S
O599      Zr2611   2.341       .  S
O599      Zr2614   2.338       .  S
C601        C976   1.483       .  S
C602        C985   1.485       .  S
C603        C841   1.491       .  S
C604        C853   1.491       .  S
C605        C817   1.491       .  S
C606        C829   1.494       .  S
C607        C805   1.487       .  S
C608        C781   1.488       .  S
H609        O610   0.966       .  S
H611        O612   0.966       .  S
O612      Zr2610   2.339       .  S
O612      Zr2614   2.339       .  S
O613       Zr649   2.441       .  S
O613        C624   1.293       .  A
O614       Zr648   2.431       .  S
O614        C625   1.291       .  A
O615       Zr621   2.440       .  S
O615        C626   1.293       .  A
O616      Zr1629   2.422       .  S
O616        C627   1.289       .  A
O617       Zr651   2.442       .  S
O617        C627   1.294       .  A
O618       Zr650   2.432       .  S
O618        C626   1.292       .  A
O619       Zr621   2.443       .  S
O619        C625   1.294       .  A
O620       Zr621   2.448       .  S
O620        C624   1.295       .  A
Zr621      O1624   2.443       .  S
Zr621      O1630   2.339       .  S
Zr621       O623   2.338       .  S
Zr621      O1639   2.341       .  S
Zr621       O629   2.345       .  S
O622      Zr1629   2.337       .  S
O622      Zr1656   2.337       .  S
O622       Zr651   2.334       .  S
O623       Zr649   2.335       .  S
O623       Zr650   2.339       .  S
C624       C1957   1.489       .  S
C625       C1948   1.487       .  S
C626        C736   1.483       .  S
C627        C721   1.475       .  S
H628        O629   0.966       .  S
O629       Zr648   2.340       .  S
O629       Zr650   2.343       .  S
H630        O631   0.966       .  S
O631      Zr1629   2.343       .  S
O631      Zr1657   2.341       .  S
O631       Zr651   2.342       .  S
O632       Zr648   2.436       .  S
O632        C655   1.292       .  A
O633       Zr649   2.440       .  S
O633        C656   1.293       .  A
O634       Zr650   2.449       .  S
O634        C657   1.294       .  A
O635       Zr651   2.432       .  S
O635        C658   1.291       .  A
O636       Zr651   2.434       .  S
O636        C659   1.292       .  A
O637       Zr650   2.443       .  S
O637        C660   1.294       .  A
O638       Zr652   2.431       .  S
O638        C661   1.291       .  A
O639      Zr1660   2.423       .  S
O639        C662   1.290       .  A
O640       Zr650   2.437       .  S
O640        C661   1.293       .  A
O641       Zr651   2.443       .  S
O641        C662   1.294       .  A
O642       Zr648   2.430       .  S
O642        C657   1.292       .  A
O643       Zr649   2.429       .  S
O643        C660   1.290       .  A
O644      Zr1657   2.435       .  S
O644        C659   1.291       .  A
O645      Zr1656   2.440       .  S
O645        C658   1.293       .  A
O646       Zr652   2.437       .  S
O646        C655   1.293       .  A
O647       Zr652   2.440       .  S
O647        C656   1.293       .  A
Zr648      O1653   2.440       .  S
Zr648      O1630   2.337       .  S
Zr648       O654   2.335       .  S
Zr648      O1674   2.333       .  S
Zr649      O1652   2.423       .  S
Zr649      O1639   2.338       .  S
Zr649      O1661   2.336       .  S
Zr649       O664   2.342       .  S
Zr650       O654   2.334       .  S
Zr650       O664   2.343       .  S
Zr651       O653   2.338       .  S
Zr651       O666   2.341       .  S
Zr652      O1647   2.426       .  S
Zr652      O1661   2.338       .  S
Zr652       O654   2.334       .  S
Zr652      O1674   2.336       .  S
Zr652       O664   2.341       .  S
O653      Zr1657   2.335       .  S
O653      Zr1660   2.340       .  S
C655       C1933   1.485       .  S
C656       C1924   1.492       .  S
C657        C808   1.487       .  S
C658        C796   1.489       .  S
C659        C772   1.486       .  S
C660        C784   1.488       .  S
C661        C745   1.486       .  S
C662        C757   1.480       .  S
H663        O664   0.966       .  S
H665        O666   0.966       .  S
O666      Zr1656   2.336       .  S
O666      Zr1660   2.339       .  S
O667       Zr703   2.448       .  S
O667        C678   1.294       .  A
O668       Zr702   2.441   1_556  S
O668        C679   1.293       .  A
O669        C680   1.292       .  A
O670       Zr675   2.438   1_556  S
O670        C681   1.293       .  A
O671       Zr705   2.437       .  S
O671        C681   1.292       .  A
O672       Zr704   2.443       .  S
O672        C680   1.294       .  A
O673       Zr675   2.436   1_556  S
O673        C679   1.293       .  A
O674       Zr675   2.434       .  S
O674        C678   1.292       .  A
Zr675       O676   2.335   1_554  S
Zr675       O685   2.337   1_554  S
O676       Zr702   2.338   1_556  S
O676       Zr705   2.332       .  S
O677       Zr704   2.335       .  S
C680        C832   1.494       .  S
C681        C844   1.490       .  S
H682        O683   0.966       .  S
O683       Zr704   2.344       .  S
H684        O685   0.966       .  S
O685       Zr703   2.340   1_556  S
O685       Zr705   2.336       .  S
O686       Zr702   2.444       .  S
O686        C709   1.293       .  A
O687       Zr703   2.447       .  S
O687        C710   1.295       .  A
O688       Zr704   2.427       .  S
O688        C711   1.290       .  A
O689       Zr705   2.433       .  S
O689        C712   1.291       .  A
O690       Zr705   2.428       .  S
O690        C713   1.290       .  A
O691       Zr704   2.429       .  S
O691        C714   1.291       .  A
O692        C715   1.288       .  A
O693       Zr706   2.446   1_556  S
O693        C716   1.295       .  A
O694       Zr704   2.449       .  S
O694        C715   1.295       .  A
O695       Zr705   2.432       .  S
O695        C716   1.291       .  A
O696        C711   1.294       .  A
O697        C714   1.292       .  A
O698       Zr703   2.437   1_556  S
O698        C713   1.293       .  A
O699       Zr702   2.435   1_556  S
O699        C712   1.293       .  A
O700       Zr706   2.431       .  S
O700        C709   1.292       .  A
O701       Zr706   2.434       .  S
O701        C710   1.291       .  A
Zr702       O720   2.340   1_554  S
Zr703       O707   2.340   1_554  S
Zr704       O708   2.335       .  S
Zr704       O718   2.336       .  S
Zr705       O707   2.337       .  S
Zr705       O720   2.338       .  S
Zr706       O707   2.336   1_554  S
Zr706       O720   2.339   1_554  S
C711        C733   1.483       .  S
C712        C748   1.486       .  S
C713        C760   1.480       .  S
C714        C724   1.478       .  S
C715        C820   1.489       .  S
C716        C856   1.492       .  S
H717        O718   0.966       .  S
H719        O720   0.966       .  S
C721        C722   1.402       .  A
C721        C726   1.411       .  A
C722        C723   1.396       .  A
C722        H727   1.084       .  S
C723        C724   1.411       .  A
C723        O728   1.372       .  S
C724        C725   1.405       .  A
C725        C726   1.400       .  A
C725        H729   1.084       .  S
C726        O730   1.373       .  S
O728        H732   0.992       .  S
O730        H731   0.992       .  S
C733        C734   1.405       .  A
C733        C738   1.413       .  A
C734        C735   1.397       .  A
C734        H739   1.084       .  S
C735        C736   1.411       .  A
C735        O740   1.372       .  S
C736        C737   1.406       .  A
C737        C738   1.400       .  A
C737        H741   1.084       .  S
C738        O742   1.372       .  S
O740        H744   0.992       .  S
O742        H743   0.992       .  S
C745        C746   1.406       .  A
C745        C750   1.414       .  A
C746        C747   1.398       .  A
C746        H751   1.083       .  S
C747        C748   1.413       .  A
C747        O752   1.372       .  S
C748        C749   1.405       .  A
C749        C750   1.398       .  A
C749        H753   1.083       .  S
C750        O754   1.372       .  S
O752        H756   0.992       .  S
O754        H755   0.992       .  S
C757        C758   1.403       .  A
C757        C762   1.412       .  A
C758        C759   1.397       .  A
C758        H763   1.084       .  S
C759        C760   1.412       .  A
C759        O764   1.372       .  S
C760        C761   1.404       .  A
C761        C762   1.398       .  A
C761        H765   1.084       .  S
C762        O766   1.371       .  S
O764        H768   0.992       .  S
O766        H767   0.991       .  S
C769        C770   1.405       .  A
C769        C774   1.414       .  A
C770        C771   1.397       .  A
C770        H775   1.083       .  S
C771        C772   1.413       .  A
C771        O776   1.372       .  S
C772        C773   1.406       .  A
C773        C774   1.399       .  A
C773        H777   1.083       .  S
C774        O778   1.371       .  S
O776        H780   0.992       .  S
O778        H779   0.991       .  S
C781        C782   1.406       .  A
C781        C786   1.415       .  A
C782        C783   1.401       .  A
C782        H787   1.083       .  S
C783        C784   1.415       .  A
C783        O788   1.372       .  S
C784        C785   1.404       .  A
C785        C786   1.397       .  A
C785        H789   1.083       .  S
C786        O790   1.372       .  S
O788        H792   0.992       .  S
O790        H791   0.992       .  S
C793        C794   1.406       .  A
C793        C798   1.414       .  A
C794        C795   1.397       .  A
C794        H799   1.083       .  S
C795        C796   1.414       .  A
C795        O800   1.372       .  S
C796        C797   1.407       .  A
C797        C798   1.399       .  A
C797        H801   1.083       .  S
C798        O802   1.372       .  S
O800        H804   0.992       .  S
O802        H803   0.992       .  S
C805        C806   1.407       .  A
C805        C810   1.412       .  A
C806        C807   1.402       .  A
C806        H811   1.084       .  S
C807        C808   1.412       .  A
C807        O812   1.372       .  S
C808        C809   1.406       .  A
C809        C810   1.398       .  A
C809        H813   1.084       .  S
C810        O814   1.372       .  S
O812        H816   0.992       .  S
O814        H815   0.992       .  S
C817        C818   1.407       .  A
C817        C822   1.414       .  A
C818        C819   1.400       .  A
C818        H823   1.083       .  S
C819        C820   1.416       .  A
C819        O824   1.372       .  S
C820        C821   1.404       .  A
C821        C822   1.398       .  A
C821        H825   1.083       .  S
C822        O826   1.372       .  S
O824        H828   0.992       .  S
O826        H827   0.991       .  S
C829        C830   1.406       .  A
C829        C834   1.416       .  A
C830        C831   1.399       .  A
C830        H835   1.083       .  S
C831        C832   1.415       .  A
C831        O836   1.372       .  S
C832        C833   1.407       .  A
C833        C834   1.402       .  A
C833        H837   1.083       .  S
C834        O838   1.372       .  S
O836        H840   0.992       .  S
O838        H839   0.992       .  S
C841        C842   1.407       .  A
C841        C846   1.414       .  A
C842        C843   1.401       .  A
C842        H847   1.083       .  S
C843        C844   1.413       .  A
C843        O848   1.372       .  S
C844        C845   1.406       .  A
C845        C846   1.401       .  A
C845        H849   1.083       .  S
C846        O850   1.372       .  S
O848        H852   0.992       .  S
O850        H851   0.992       .  S
C853        C854   1.406       .  A
C853        C858   1.415       .  A
C854        C855   1.400       .  A
C854        H859   1.083       .  S
C855        C856   1.415       .  A
C855        O860   1.371       .  S
C856        C857   1.406       .  A
C857        C858   1.400       .  A
C857        H861   1.083       .  S
C858        O862   1.372       .  S
O860        H864   0.992       .  S
O862        H863   0.992       .  S
C865        C866   1.406       .  A
C866        C867   1.399       .  A
C866        H871   1.084       .  S
C867        C868   1.413       .  A
C867        O872   1.372       .  S
C869        C870   1.400       .  A
C869        H873   1.083       .  S
C870        O874   1.372       .  S
O872        H876   0.992       .  S
O874        H875   0.992       .  S
C877        C878   1.407       .  A
C878        C879   1.400       .  A
C878        H883   1.083       .  S
C879        C880   1.416       .  A
C879        O884   1.372       .  S
C881        C882   1.400       .  A
C881        H885   1.083       .  S
C882        O886   1.372       .  S
O884        H888   0.992       .  S
O886        H887   0.992       .  S
C889        C890   1.406       .  A
C890        C891   1.400       .  A
C890        H895   1.083       .  S
C891        C892   1.414       .  A
C891        O896   1.372       .  S
C893        C894   1.399       .  A
C893        H897   1.084       .  S
C894        O898   1.372       .  S
O896        H900   0.992       .  S
O898        H899   0.992       .  S
C901        C902   1.406       .  A
C902        C903   1.398       .  A
C902        H907   1.084       .  S
C903        C904   1.413       .  A
C903        O908   1.372       .  S
C905        C906   1.401       .  A
C905        H909   1.084       .  S
C906        O910   1.372       .  S
O908        H912   0.992       .  S
O910        H911   0.992       .  S
C913       C1922   1.408       .  A
C913        C918   1.413   1_565  A
C914       C1921   1.408       .  A
C914        C915   1.403       .  A
C914        H919   1.083       .  S
C915       C1924   1.414       .  A
C915        O920   1.372       .  S
C916       C1664   1.493   1_565  S
C916       C1923   1.414       .  A
C916        C917   1.407   1_565  A
C917        C918   1.400       .  A
C917        H921   1.083       .  S
C918        O922   1.372       .  S
O920        H924   0.992       .  S
O922        H923   0.992   1_545  S
C925       C1663   1.486       .  S
C925       C1934   1.405       .  A
C925        C930   1.412   1_545  A
C926       C1933   1.406       .  A
C926        C927   1.399       .  A
C926        H931   1.082       .  S
C927       C1936   1.412       .  A
C927        O932   1.372       .  S
C928       C1935   1.412       .  A
C928        C929   1.406   1_545  A
C929        C930   1.401       .  A
C929        H933   1.083       .  S
C930        O934   1.372       .  S
O932        H936   0.992       .  S
O934        H935   0.992       .  S
C937        C938   1.405       .  A
C937       C1950   1.417       .  A
C938        C939   1.398       .  A
C938        H943   1.083       .  S
C939        C940   1.415       .  A
C939        O944   1.372       .  S
C940       C1633   1.489       .  S
C940       C1949   1.405       .  A
C941       C1948   1.405       .  A
C941        C942   1.400       .  A
C941        H945   1.083       .  S
C942       C1945   1.414       .  A
C942        O946   1.372       .  S
O944        H948   0.992       .  S
O946        H947   0.992       .  S
C949       C1632   1.490       .  S
C949       C1958   1.406       .  A
C949        C954   1.413   1_565  A
C950       C1957   1.406       .  A
C950        C951   1.401       .  A
C950        H955   1.084       .  S
C951       C1960   1.412       .  A
C951        O956   1.372       .  S
C952       C1959   1.412       .  A
C952        C953   1.406   1_565  A
C953        C954   1.401       .  A
C953        H957   1.084       .  S
C954        O958   1.372       .  S
O956        H960   0.992       .  S
O958        H959   0.992       .  S
C961        C962   1.405       .  A
C961       C2982   1.414   1_655  A
C962        C963   1.398       .  A
C962        H967   1.083       .  S
C963        C964   1.414       .  A
C963        O968   1.372       .  S
C964       C2981   1.405   1_655  A
C965       C2980   1.405       .  A
C965        C966   1.396       .  A
C965        H969   1.083       .  S
C966       C2977   1.414       .  A
C966        O970   1.372       .  S
O968        H972   0.992   1_655  S
O970        H971   0.992       .  S
C973       C2990   1.404   1_455  A
C973        C978   1.414       .  A
C974       C2989   1.404       .  A
C974        C975   1.396       .  A
C974        H979   1.084       .  S
C975       C2992   1.413       .  A
C975        O980   1.372       .  S
C976       C2991   1.415   1_455  A
C976        C977   1.404       .  A
C977        C978   1.396       .  A
C977        H981   1.083       .  S
C978        O982   1.372       .  S
O980        H984   0.992       .  S
O982        H983   0.992   1_455  S
C985       C3002   1.404   1_655  A
C985        C990   1.414       .  A
C986       C3001   1.407       .  A
C986        C987   1.398       .  A
C986        H991   1.083       .  S
C987       C3004   1.415       .  A
C987        O992   1.372       .  S
C988       C3003   1.413   1_655  A
C988        C989   1.405       .  A
C989        C990   1.399       .  A
C989        H993   1.084       .  S
C990        O994   1.372       .  S
O992        H996   0.992       .  S
O994        H995   0.992       .  S
C997       C3014   1.405   1_455  A
C997       C1002   1.412       .  A
C998       C3013   1.404       .  A
C998        C999   1.397       .  A
C998       H1003   1.084       .  S
C999       C3016   1.411       .  A
C999       O1004   1.372       .  S
C1000      C3015   1.413   1_455  A
C1000      C1001   1.406       .  A
C1001      C1002   1.398       .  A
C1001      H1005   1.083       .  S
C1002      O1006   1.372       .  S
O1004      H1008   0.992       .  S
O1006      H1007   0.992       .  S
O1009     Zr1045   2.435       .  S
O1009      C1020   1.292       .  A
O1010     Zr1044   2.422       .  S
O1010      C1021   1.289       .  A
O1011     Zr1017   2.434   1_455  S
O1011      C1022   1.291       .  A
O1012     Zr3033   2.452   1_554  S
O1012      C1023   1.295       .  A
O1013     Zr1047   2.440       .  S
O1013      C1023   1.293       .  A
O1014     Zr1046   2.451       .  S
O1014      C1022   1.296       .  A
O1015     Zr1521   2.433       .  S
O1015      C1021   1.292       .  A
O1016     Zr1017   2.428   1_455  S
O1016      C1020   1.290       .  A
Zr1017     O3028   2.439   1_554  S
Zr1017     O1519   2.435   1_554  S
Zr1017     O3538   2.333   1_554  S
Zr1017     O1019   2.337   1_655  S
Zr1017     O3043   2.338       .  S
Zr1017     O1529   2.339   1_654  S
O1018     Zr3537   2.336       .  S
O1018     Zr3060   2.336       .  S
O1018     Zr1551   2.338       .  S
O1019     Zr1045   2.335       .  S
O1019     Zr1046   2.341       .  S
C1020      C1501   1.480       .  S
C1021      C1465   1.479       .  S
C1022      C1405   1.490       .  S
C1023      C1384   1.492       .  S
H1024      O1025   0.966       .  S
O1025     Zr1521   2.341   1_455  S
O1025     Zr1044   2.337   1_455  S
O1025     Zr1550   2.340       .  S
H1026      O1027   0.966       .  S
O1027     Zr3033   2.342   1_554  S
O1027     Zr3061   2.341       .  S
O1027     Zr1047   2.342       .  S
O1028      C1051   1.290       .  A
O1029      C1052   1.293       .  A
O1030     Zr1550   2.434       .  S
O1030      C1053   1.291       .  A
O1031     Zr1551   2.438       .  S
O1031      C1054   1.293       .  A
O1032     Zr1047   2.436       .  S
O1032      C1055   1.292       .  A
O1033     Zr1046   2.423       .  S
O1033      C1056   1.289       .  A
O1034     Zr1048   2.435       .  S
O1034      C1057   1.292   1_554  A
O1035     Zr3064   2.436       .  S
O1035      C1058   1.292       .  A
O1036      C1057   1.292       .  A
O1037      C1058   1.294       .  A
O1038     Zr1044   2.450   1_455  S
O1038      C1053   1.295       .  A
O1039     Zr1045   2.444       .  S
O1039      C1056   1.294       .  A
O1040     Zr3061   2.442       .  S
O1040      C1055   1.294       .  A
O1041     Zr3060   2.434       .  S
O1041      C1054   1.292       .  A
O1042     Zr1552   2.432       .  S
O1042      C1051   1.292       .  A
O1043     Zr1048   2.434       .  S
O1043      C1052   1.292       .  A
Zr1044     O3057   2.441       .  S
Zr1044     O3034   2.338       .  S
Zr1044     O2070   2.339       .  S
Zr1045     O3056   2.450   1_455  S
Zr1045     O3043   2.336   1_455  S
Zr1045     O2057   2.340   1_455  S
Zr1046     O1534   2.435   1_554  S
Zr1046     O1529   2.338   1_554  S
Zr1047     O1535   2.445   1_554  S
Zr1047     O1522   2.334   1_554  S
Zr1048     O3051   2.445   1_455  S
Zr1048     O1546   2.434   1_554  S
Zr1048     O3065   2.334   1_455  S
Zr1048     O1554   2.341   1_554  S
Zr1048     O3582   2.336   1_454  S
Zr1048     O1060   2.342       .  S
O1049     Zr2053   2.341   1_565  S
O1049     Zr3064   2.337   1_554  S
O1050     Zr1552   2.340       .  S
C1051      C1477   1.481   1_455  S
C1052      C1492   1.483       .  S
C1053      C1432   1.490       .  S
C1054      C1417   1.483       .  S
C1055      C1456   1.490       .  S
C1056      C1441   1.487       .  S
C1057      C1393   1.487       .  S
C1058      C1369   1.488       .  S
H1059      O1060   0.966       .  S
H1061      O1062   0.966       .  S
O1062     Zr2052   2.341       .  S
O1062     Zr3568   2.340       .  S
O1063     Zr1099   2.432       .  S
O1063      C1074   1.292       .  A
O1064     Zr1098   2.426   1_455  S
O1064      C1075   1.290       .  A
O1065     Zr1071   2.433       .  S
O1065      C1076   1.291       .  A
O1066     Zr3087   2.440       .  S
O1066      C1077   1.293       .  A
O1067     Zr1101   2.428       .  S
O1067      C1077   1.290       .  A
O1068     Zr1100   2.449       .  S
O1068      C1076   1.295       .  A
O1069     Zr1071   2.432       .  S
O1069      C1075   1.292       .  A
O1070     Zr1071   2.439       .  S
O1070      C1074   1.293       .  A
Zr1071     O3082   2.451   1_455  S
Zr1071     O3088   2.334   1_455  S
Zr1071     O1073   2.340       .  S
Zr1071     O3097   2.338   1_455  S
Zr1071     O1079   2.345       .  S
O1072     Zr3087   2.331       .  S
O1072     Zr3114   2.333       .  S
O1072     Zr1101   2.334       .  S
O1073     Zr1099   2.337       .  S
O1073     Zr1100   2.341       .  S
C1074      C1504   1.482       .  S
C1075      C1468   1.480       .  S
C1076      C1297   1.487       .  S
C1077      C1273   1.489       .  S
H1078      O1079   0.966       .  S
O1079     Zr1098   2.340   1_455  S
O1079     Zr1100   2.342       .  S
H1080      O1081   0.966       .  S
O1081     Zr3087   2.338       .  S
O1081     Zr3115   2.341       .  S
O1081     Zr1101   2.339       .  S
O1082     Zr1098   2.420       .  S
O1082      C1105   1.289       .  A
O1083     Zr1099   2.434   1_655  S
O1083      C1106   1.292       .  A
O1084     Zr1100   2.441       .  S
O1084      C1107   1.293       .  A
O1085     Zr1101   2.437       .  S
O1085      C1108   1.292       .  A
O1086     Zr1101   2.431       .  S
O1086      C1109   1.291       .  A
O1087     Zr1100   2.436       .  S
O1087      C1110   1.292       .  A
O1088     Zr1102   2.430   1_455  S
O1088      C1111   1.291       .  A
O1089     Zr3118   2.445       .  S
O1089      C1112   1.295       .  A
O1090     Zr1100   2.444       .  S
O1090      C1111   1.294       .  A
O1091     Zr1101   2.430       .  S
O1091      C1112   1.290       .  A
O1092     Zr1098   2.428   1_455  S
O1092      C1107   1.290       .  A
O1093     Zr1099   2.455       .  S
O1093      C1110   1.296       .  A
O1094     Zr3115   2.453       .  S
O1094      C1109   1.296       .  A
O1095     Zr3114   2.438       .  S
O1095      C1108   1.292       .  A
O1096     Zr1102   2.435       .  S
O1096      C1105   1.293       .  A
O1097     Zr1102   2.436       .  S
O1097      C1106   1.292       .  A
Zr1098     O3111   2.437       .  S
Zr1098     O3088   2.329       .  S
Zr1098     O1104   2.336   1_655  S
Zr1098     O3132   2.338       .  S
Zr1099     O3110   2.448   1_455  S
Zr1099     O3097   2.345   1_455  S
Zr1099     O3119   2.339   1_455  S
Zr1099     O1114   2.339       .  S
Zr1100     O1104   2.338       .  S
Zr1100     O1114   2.341       .  S
Zr1101     O1103   2.333       .  S
Zr1101     O1116   2.336       .  S
Zr1102     O3105   2.436       .  S
Zr1102     O3119   2.334       .  S
Zr1102     O1104   2.338   1_655  S
Zr1102     O3132   2.340       .  S
Zr1102     O1114   2.340   1_655  S
O1103     Zr3115   2.337       .  S
O1103     Zr3118   2.335       .  S
C1105      C1480   1.482       .  S
C1106      C1489   1.482       .  S
C1107      C1345   1.485       .  S
C1108      C1357   1.491       .  S
C1109      C1321   1.495       .  S
C1110      C1333   1.494       .  S
C1111      C1309   1.491       .  S
C1112      C1285   1.493       .  S
H1113      O1114   0.965       .  S
H1115      O1116   0.966       .  S
O1116     Zr3114   2.340       .  S
O1116     Zr3118   2.340       .  S
O1117     Zr1153   2.432   1_545  S
O1117      C1128   1.291       .  A
O1118     Zr1152   2.421       .  S
O1118      C1129   1.289       .  A
O1119     Zr1125   2.429   1_565  S
O1119      C1130   1.291       .  A
O1120      C1131   1.291       .  A
O1121     Zr1155   2.445       .  S
O1121      C1131   1.294       .  A
O1122     Zr1154   2.440       .  S
O1122      C1130   1.294       .  A
O1123     Zr1125   2.439       .  S
O1123      C1129   1.293       .  A
O1124     Zr1125   2.447       .  S
O1124      C1128   1.295       .  A
Zr1125     O1127   2.335   1_545  S
Zr1125     O1133   2.341   1_545  S
O1126     Zr1155   2.337       .  S
O1127     Zr1153   2.337       .  S
O1127     Zr1154   2.337       .  S
C1130      C1240   1.482       .  S
C1131      C1225   1.488       .  S
H1132      O1133   0.966       .  S
O1133     Zr1152   2.343   1_565  S
O1133     Zr1154   2.343       .  S
H1134      O1135   0.966       .  S
O1135     Zr1155   2.340       .  S
O1136     Zr1152   2.434       .  S
O1136      C1159   1.291   1_545  A
O1137     Zr1153   2.436   1_545  S
O1137      C1160   1.293       .  A
O1138     Zr1154   2.440       .  S
O1138      C1161   1.293       .  A
O1139     Zr1155   2.438       .  S
O1139      C1162   1.292       .  A
O1140     Zr1155   2.440       .  S
O1140      C1163   1.294       .  A
O1141     Zr1154   2.451       .  S
O1141      C1164   1.296       .  A
O1142     Zr1156   2.425       .  S
O1142      C1165   1.290       .  A
O1143      C1166   1.290       .  A
O1144     Zr1154   2.445       .  S
O1144      C1165   1.294       .  A
O1145     Zr1155   2.441       .  S
O1145      C1166   1.294       .  A
O1146     Zr1152   2.436   1_565  S
O1146      C1161   1.293       .  A
O1147     Zr1153   2.423       .  S
O1147      C1164   1.289       .  A
O1148      C1163   1.291       .  A
O1149      C1162   1.293       .  A
O1150     Zr1156   2.436       .  S
O1150      C1159   1.292       .  A
O1151     Zr1156   2.438   1_545  S
O1151      C1160   1.292       .  A
Zr1152     O1158   2.337   1_545  S
Zr1153     O1168   2.335       .  S
Zr1154     O1158   2.341       .  S
Zr1154     O1168   2.341       .  S
Zr1155     O1157   2.340       .  S
Zr1155     O1170   2.344       .  S
Zr1156     O1158   2.335       .  S
Zr1156     O1168   2.338       .  S
C1161      C1312   1.491       .  S
C1162      C1300   1.486       .  S
C1163      C1276   1.490       .  S
C1164      C1288   1.492       .  S
C1165      C1249   1.485       .  S
C1166      C1261   1.483       .  S
H1167      O1168   0.966       .  S
H1169      O1170   0.966       .  S
O1171     Zr1207   2.432       .  S
O1171      C1182   1.291       .  A
O1172     Zr1206   2.423       .  S
O1172      C1183   1.289       .  A
O1173     Zr1683   2.434   1_554  S
O1173      C1184   1.292       .  A
O1174     Zr1179   2.433       .  S
O1174      C1185   1.292       .  A
O1175     Zr1209   2.433       .  S
O1175      C1185   1.291       .  A
O1176     Zr1208   2.450       .  S
O1176      C1184   1.295       .  A
O1177     Zr1179   2.446       .  S
O1177      C1183   1.295       .  A
O1178     Zr1179   2.452       .  S
O1178      C1182   1.296       .  A
Zr1179     O1677   2.429       .  S
Zr1179     O1180   2.338       .  S
Zr1179     O1685   2.339       .  S
Zr1179     O1189   2.338       .  S
Zr1179     O1691   2.335       .  S
O1180     Zr1206   2.337       .  S
O1180     Zr1209   2.334       .  S
O1181     Zr1683   2.340   1_554  S
O1181     Zr1711   2.341   1_554  S
O1181     Zr1208   2.338       .  S
C1182      C1912   1.494       .  S
C1183      C1900   1.487       .  S
C1184      C1336   1.492       .  S
C1185      C1348   1.484       .  S
H1186      O1187   0.966       .  S
O1187     Zr1683   2.341   1_554  S
O1187     Zr1710   2.343   1_554  S
O1187     Zr1208   2.341       .  S
H1188      O1189   0.966       .  S
O1189     Zr1207   2.346       .  S
O1189     Zr1209   2.340       .  S
O1190     Zr1206   2.424       .  S
O1190      C1213   1.290       .  A
O1191     Zr1207   2.443       .  S
O1191      C1214   1.294       .  A
O1192     Zr1208   2.429       .  S
O1192      C1215   1.291       .  A
O1193     Zr1209   2.429       .  S
O1193      C1216   1.290       .  A
O1194     Zr1209   2.423       .  S
O1194      C1217   1.289       .  A
O1195     Zr1208   2.437       .  S
O1195      C1218   1.292       .  A
O1196     Zr1714   2.432   1_554  S
O1196      C1219   1.291       .  A
O1197     Zr1210   2.439       .  S
O1197      C1220   1.293       .  A
O1198     Zr1208   2.448       .  S
O1198      C1219   1.295       .  A
O1199     Zr1209   2.432       .  S
O1199      C1220   1.291       .  A
O1200     Zr1710   2.433   1_554  S
O1200      C1215   1.292       .  A
O1201     Zr1711   2.433   1_554  S
O1201      C1218   1.292       .  A
O1202     Zr1207   2.443       .  S
O1202      C1217   1.294       .  A
O1203     Zr1206   2.443       .  S
O1203      C1216   1.294       .  A
O1204     Zr1210   2.439       .  S
O1204      C1213   1.293       .  A
O1205     Zr1210   2.436       .  S
O1205      C1214   1.292       .  A
Zr1206     O1704   2.442       .  S
Zr1206     O1691   2.340       .  S
Zr1206     O1716   2.335       .  S
Zr1206     O1224   2.339       .  S
Zr1207     O1705   2.450       .  S
Zr1207     O1685   2.338       .  S
Zr1207     O1211   2.340       .  S
Zr1207     O1726   2.336       .  S
Zr1208     O1212   2.342       .  S
Zr1208     O1222   2.336       .  S
Zr1209     O1211   2.338       .  S
Zr1209     O1224   2.336       .  S
Zr1210     O1700   2.424       .  S
Zr1210     O1211   2.334       .  S
Zr1210     O1716   2.341       .  S
Zr1210     O1224   2.333       .  S
Zr1210     O1726   2.340       .  S
O1212     Zr1710   2.336   1_554  S
O1212     Zr1714   2.338   1_554  S
C1213      C1876   1.484       .  S
C1214      C1885   1.485       .  S
C1215      C1237   1.480       .  S
C1216      C1252   1.484       .  S
C1217      C1264   1.484       .  S
C1218      C1228   1.486       .  S
C1219      C1324   1.494       .  S
C1220      C1360   1.490       .  S
H1221      O1222   0.965       .  S
O1222     Zr1711   2.337   1_554  S
O1222     Zr1714   2.339   1_554  S
H1223      O1224   0.966       .  S
C1225      C1226   1.406       .  A
C1225      C1230   1.414       .  A
C1226      C1227   1.399       .  A
C1226      H1231   1.083       .  S
C1227      C1228   1.413       .  A
C1227      O1232   1.372       .  S
C1228      C1229   1.406       .  A
C1229      C1230   1.398       .  A
C1229      H1233   1.084       .  S
C1230      O1234   1.372       .  S
O1232      H1236   0.992       .  S
O1234      H1235   0.992       .  S
C1237      C1238   1.405       .  A
C1237      C1242   1.411       .  A
C1238      C1239   1.398       .  A
C1238      H1243   1.084       .  S
C1239      C1240   1.413       .  A
C1239      O1244   1.372       .  S
C1240      C1241   1.404       .  A
C1241      C1242   1.397       .  A
C1241      H1245   1.084       .  S
C1242      O1246   1.372       .  S
O1244      H1248   0.992       .  S
O1246      H1247   0.992       .  S
C1249      C1250   1.405       .  A
C1249      C1254   1.415       .  A
C1250      C1251   1.399       .  A
C1250      H1255   1.083       .  S
C1251      C1252   1.414       .  A
C1251      O1256   1.372       .  S
C1252      C1253   1.404       .  A
C1253      C1254   1.396       .  A
C1253      H1257   1.083       .  S
C1254      O1258   1.372       .  S
O1256      H1260   0.992       .  S
O1258      H1259   0.992       .  S
C1261      C1262   1.403       .  A
C1261      C1266   1.414       .  A
C1262      C1263   1.396       .  A
C1262      H1267   1.083       .  S
C1263      C1264   1.414       .  A
C1263      O1268   1.371       .  S
C1264      C1265   1.405       .  A
C1265      C1266   1.399       .  A
C1265      H1269   1.084       .  S
C1266      O1270   1.372       .  S
O1268      H1272   0.992       .  S
O1270      H1271   0.992       .  S
C1273      C1274   1.406       .  A
C1273      C1278   1.414       .  A
C1274      C1275   1.399       .  A
C1274      H1279   1.083       .  S
C1275      C1276   1.415       .  A
C1275      O1280   1.372       .  S
C1276      C1277   1.406       .  A
C1277      C1278   1.398       .  A
C1277      H1281   1.083       .  S
C1278      O1282   1.371       .  S
O1280      H1284   0.992       .  S
O1282      H1283   0.991       .  S
C1285      C1286   1.405       .  A
C1285      C1290   1.416       .  A
C1286      C1287   1.400       .  A
C1286      H1291   1.083       .  S
C1287      C1288   1.417       .  A
C1287      O1292   1.372       .  S
C1288      C1289   1.405       .  A
C1289      C1290   1.400       .  A
C1289      H1293   1.083       .  S
C1290      O1294   1.372       .  S
O1292      H1296   0.992       .  S
O1294      H1295   0.992       .  S
C1297      C1298   1.406       .  A
C1297      C1302   1.413       .  A
C1298      C1299   1.402       .  A
C1298      H1303   1.084       .  S
C1299      C1300   1.413       .  A
C1299      O1304   1.372       .  S
C1300      C1301   1.405       .  A
C1301      C1302   1.399       .  A
C1301      H1305   1.084       .  S
C1302      O1306   1.372       .  S
O1304      H1308   0.992       .  S
O1306      H1307   0.992       .  S
C1309      C1310   1.405       .  A
C1309      C1314   1.415       .  A
C1310      C1311   1.397       .  A
C1310      H1315   1.083       .  S
C1311      C1312   1.414       .  A
C1311      O1316   1.372       .  S
C1312      C1313   1.408       .  A
C1313      C1314   1.401       .  A
C1313      H1317   1.083       .  S
C1314      O1318   1.372       .  S
O1316      H1320   0.992       .  S
O1318      H1319   0.992       .  S
C1321      C1322   1.406       .  A
C1321      C1326   1.416       .  A
C1322      C1323   1.402       .  A
C1322      H1327   1.083       .  S
C1323      C1324   1.416       .  A
C1323      O1328   1.372       .  S
C1324      C1325   1.405       .  A
C1325      C1326   1.401       .  A
C1325      H1329   1.083       .  S
C1326      O1330   1.372       .  S
O1328      H1332   0.992       .  S
O1330      H1331   0.991       .  S
C1333      C1334   1.406       .  A
C1333      C1338   1.416       .  A
C1334      C1335   1.401       .  A
C1334      H1339   1.083       .  S
C1335      C1336   1.415       .  A
C1335      O1340   1.372       .  S
C1336      C1337   1.406       .  A
C1337      C1338   1.402       .  A
C1337      H1341   1.083       .  S
C1338      O1342   1.372       .  S
O1340      H1344   0.992       .  S
O1342      H1343   0.992       .  S
C1345      C1346   1.406       .  A
C1345      C1350   1.414       .  A
C1346      C1347   1.399       .  A
C1346      H1351   1.084       .  S
C1347      C1348   1.413       .  A
C1347      O1352   1.372       .  S
C1348      C1349   1.405       .  A
C1349      C1350   1.397       .  A
C1349      H1353   1.083       .  S
C1350      O1354   1.372       .  S
O1352      H1356   0.992       .  S
O1354      H1355   0.992       .  S
C1357      C1358   1.408       .  A
C1357      C1362   1.413       .  A
C1358      C1359   1.401       .  A
C1358      H1363   1.083       .  S
C1359      C1360   1.414       .  A
C1359      O1364   1.372       .  S
C1360      C1361   1.406       .  A
C1361      C1362   1.397       .  A
C1361      H1365   1.083       .  S
C1362      O1366   1.371       .  S
O1364      H1368   0.991       .  S
O1366      H1367   0.991       .  S
C1369      C1370   1.406       .  A
C1369      C1878   1.413   1_556  A
C1370      C1371   1.401       .  A
C1370      H1375   1.084       .  S
C1371      C1372   1.414       .  A
C1371      O1376   1.372       .  S
C1372      C1717   1.490       .  S
C1372      C1877   1.406   1_556  A
C1373      C1876   1.405       .  A
C1373      C1374   1.399       .  A
C1373      H1377   1.083       .  S
C1374      C1873   1.413       .  A
C1374      O1378   1.372       .  S
O1376      H1380   0.992       .  S
O1378      H1379   0.992       .  S
C1381      C1718   1.492       .  S
C1381      C1382   1.405   1_554  A
C1381      C1890   1.414       .  A
C1382      C1383   1.403       .  A
C1382      H1387   1.083       .  S
C1383      C1384   1.414   1_556  A
C1383      O1388   1.372       .  S
C1384      C1889   1.406       .  A
C1385      C1888   1.405       .  A
C1385      C1386   1.398       .  A
C1385      H1389   1.084       .  S
C1386      C1885   1.412       .  A
C1386      O1390   1.372       .  S
O1388      H1392   0.992       .  S
O1390      H1391   0.992       .  S
C1393      C1394   1.407   1_556  A
C1393      C1902   1.413       .  A
C1394      C1395   1.401       .  A
C1394      H1399   1.083       .  S
C1395      C1396   1.414   1_554  A
C1395      O1400   1.372       .  S
C1396      C1687   1.488       .  S
C1396      C1901   1.405       .  A
C1397      C1900   1.404       .  A
C1397      C1398   1.395       .  A
C1397      H1401   1.083       .  S
C1398      C1897   1.413       .  A
C1398      O1402   1.372       .  S
O1400      H1404   0.992   1_554  S
O1402      H1403   0.992       .  S
C1405      C1406   1.404   1_554  A
C1405      C1914   1.415       .  A
C1406      C1407   1.399       .  A
C1406      H1411   1.083       .  S
C1407      C1408   1.414   1_556  A
C1407      O1412   1.372       .  S
C1408      C1686   1.491       .  S
C1408      C1913   1.406       .  A
C1409      C1912   1.406       .  A
C1409      C1410   1.402       .  A
C1409      H1413   1.083       .  S
C1410      C1909   1.415       .  A
C1410      O1414   1.372       .  S
O1412      H1416   0.992       .  S
O1414      H1415   0.991       .  S
C1417      C1422   1.412       .  A
C1418      C1419   1.401       .  A
C1418      H1423   1.083       .  S
C1419      O1424   1.372       .  S
C1420      C1421   1.405       .  A
C1421      C1422   1.398       .  A
C1421      H1425   1.083       .  S
C1422      O1426   1.372       .  S
O1424      H1428   0.992       .  S
O1426      H1427   0.992       .  S
C1429      C1434   1.415       .  A
C1430      C1431   1.398       .  A
C1430      H1435   1.083       .  S
C1431      O1436   1.372       .  S
C1432      C1433   1.406       .  A
C1433      C1434   1.402       .  A
C1433      H1437   1.084       .  S
C1434      O1438   1.372       .  S
O1436      H1440   0.992       .  S
O1438      H1439   0.992       .  S
C1441      C1442   1.405       .  A
C1442      C1443   1.399       .  A
C1442      H1447   1.083       .  S
C1443      C1444   1.416       .  A
C1443      O1448   1.373       .  S
C1445      C1446   1.396       .  A
C1445      H1449   1.083       .  S
C1446      O1450   1.372       .  S
O1448      H1452   0.992       .  S
O1450      H1451   0.992       .  S
C1453      C1458   1.415       .  A
C1454      C1455   1.399       .  A
C1454      H1459   1.083       .  S
C1455      O1460   1.372       .  S
C1456      C1457   1.406       .  A
C1457      C1458   1.400       .  A
C1457      H1461   1.083       .  S
C1458      O1462   1.372       .  S
O1460      H1464   0.992   1_565  S
O1462      H1463   0.992       .  S
C1465      C1466   1.404       .  A
C1465      C3486   1.412   1_655  A
C1466      C1467   1.397       .  A
C1466      H1471   1.084       .  S
C1467      C1468   1.413   1_655  A
C1467      O1472   1.372       .  S
C1468      C3485   1.404       .  A
C1469      C3484   1.405       .  A
C1469      C1470   1.397       .  A
C1469      H1473   1.084       .  S
C1470      C3481   1.412       .  A
C1470      O1474   1.372       .  S
O1472      H1476   0.992       .  S
O1474      H1475   0.992       .  S
C1477      C3494   1.405   1_655  A
C1477      C1482   1.413       .  A
C1478      C3493   1.403       .  A
C1478      C1479   1.397       .  A
C1478      H1483   1.084       .  S
C1479      C3496   1.412       .  A
C1479      O1484   1.372       .  S
C1480      C3495   1.414   1_655  A
C1480      C1481   1.405       .  A
C1481      C1482   1.396       .  A
C1481      H1485   1.083       .  S
C1482      O1486   1.372       .  S
O1484      H1488   0.992       .  S
O1486      H1487   0.992       .  S
C1489      C3506   1.405   1_655  A
C1489      C1494   1.411       .  A
C1490      C3505   1.406       .  A
C1490      C1491   1.397       .  A
C1490      H1495   1.083       .  S
C1491      C3508   1.414       .  A
C1491      O1496   1.372       .  S
C1492      C3507   1.411       .  A
C1492      C1493   1.406   1_455  A
C1493      C1494   1.399       .  A
C1493      H1497   1.083       .  S
C1494      O1498   1.372       .  S
O1496      H1500   0.992       .  S
O1498      H1499   0.992       .  S
C1501      C3518   1.405       .  A
C1501      C1506   1.411   1_455  A
C1502      C3517   1.406       .  A
C1502      C1503   1.397       .  A
C1502      H1507   1.083       .  S
C1503      C3520   1.414       .  A
C1503      O1508   1.372       .  S
C1504      C3519   1.411       .  A
C1504      C1505   1.405   1_455  A
C1505      C1506   1.398       .  A
C1505      H1509   1.084       .  S
C1506      O1510   1.372       .  S
O1508      H1512   0.992       .  S
O1510      H1511   0.992       .  S
O1513     Zr1549   2.432       .  S
O1513      C1524   1.292       .  A
O1514     Zr1548   2.422       .  S
O1514      C1525   1.289   1_455  A
O1515     Zr1521   2.439   1_455  S
O1515      C1526   1.292       .  A
O1516     Zr3537   2.437       .  S
O1516      C1527   1.293       .  A
O1517     Zr1551   2.437       .  S
O1517      C1527   1.292       .  A
O1518     Zr1550   2.448       .  S
O1518      C1526   1.295       .  A
O1519      C1525   1.292       .  A
O1520     Zr1521   2.430   1_455  S
O1520      C1524   1.291       .  A
Zr1521     O3532   2.450       .  S
Zr1521     O3034   2.333       .  S
Zr1521     O1523   2.339   1_655  S
Zr1521     O3547   2.340       .  S
O1522     Zr3033   2.333       .  S
O1522     Zr3564   2.336       .  S
O1523     Zr1549   2.336       .  S
O1523     Zr1550   2.337       .  S
C1524      C2005   1.481       .  S
C1525      C1969   1.481   1_655  S
C1526      C1909   1.494       .  S
C1527      C1888   1.484       .  S
H1528      O1529   0.966       .  S
O1529     Zr1548   2.335       .  S
H1530      O1531   0.966       .  S
O1531     Zr3537   2.336       .  S
O1531     Zr3565   2.340       .  S
O1531     Zr1551   2.341       .  S
O1532      C1555   1.293       .  A
O1533      C1556   1.291   1_655  A
O1534      C1557   1.292       .  A
O1535      C1558   1.294       .  A
O1536     Zr1551   2.440       .  S
O1536      C1559   1.293       .  A
O1537     Zr1550   2.430       .  S
O1537      C1560   1.291       .  A
O1538     Zr1552   2.435       .  S
O1538      C1561   1.292       .  A
O1539     Zr3568   2.428       .  S
O1539      C1562   1.290       .  A
O1540      C1561   1.292       .  A
O1541      C1562   1.292       .  A
O1542     Zr1548   2.440       .  S
O1542      C1557   1.293       .  A
O1543     Zr1549   2.445       .  S
O1543      C1560   1.294       .  A
O1544     Zr3565   2.444       .  S
O1544      C1559   1.294       .  A
O1545     Zr3564   2.440       .  S
O1545      C1558   1.292       .  A
O1546      C1555   1.292       .  A
O1547     Zr1552   2.442       .  S
O1547      C1556   1.294       .  A
Zr1548     O3561   2.437   1_455  S
Zr1548     O3538   2.334   1_455  S
Zr1548     O2574   2.339   1_455  S
Zr1549     O3560   2.445   1_455  S
Zr1549     O3547   2.341   1_455  S
Zr1549     O2561   2.339   1_455  S
Zr1552     O3555   2.439   1_455  S
Zr1552     O3569   2.334   1_455  S
Zr1552     O3078   2.340   1_455  S
Zr1552     O1564   2.339       .  S
O1553     Zr2557   2.337   1_565  S
O1553     Zr3568   2.337       .  S
C1555      C1981   1.485       .  S
C1556      C1996   1.491       .  S
C1557      C1936   1.486       .  S
C1558      C1921   1.494       .  S
C1559      C1960   1.487       .  S
C1560      C1945   1.487       .  S
C1561      C1897   1.488       .  S
C1562      C1873   1.484       .  S
H1563      O1564   0.966       .  S
H1565      O1566   0.966       .  S
O1566     Zr2556   2.338   1_565  S
O1566     Zr3064   2.334       .  S
O1567     Zr1603   2.434       .  S
O1567      C1578   1.292       .  A
O1568     Zr1602   2.432       .  S
O1568      C1579   1.291       .  A
O1569     Zr1575   2.419   1_455  S
O1569      C1580   1.289       .  A
O1570     Zr3591   2.444       .  S
O1570      C1581   1.294       .  A
O1571     Zr1605   2.424       .  S
O1571      C1581   1.289       .  A
O1572     Zr1604   2.450       .  S
O1572      C1580   1.296       .  A
O1573     Zr1575   2.435       .  S
O1573      C1579   1.292       .  A
O1574     Zr1575   2.428   1_455  S
O1574      C1578   1.290       .  A
Zr1575     O3586   2.440       .  S
Zr1575     O3592   2.330       .  S
Zr1575     O1577   2.342   1_655  S
Zr1575     O3601   2.336       .  S
Zr1575     O1583   2.341   1_655  S
O1576     Zr3591   2.330       .  S
O1576     Zr3618   2.332       .  S
O1576     Zr1605   2.334       .  S
O1577     Zr1603   2.336       .  S
O1577     Zr1604   2.338       .  S
C1578      C2008   1.483       .  S
C1579      C1972   1.483       .  S
C1580      C1801   1.486       .  S
C1581      C1777   1.488       .  S
H1582      O1583   0.966       .  S
O1583     Zr1602   2.336   1_455  S
O1583     Zr1604   2.342       .  S
H1584      O1585   0.966       .  S
O1585     Zr3591   2.339       .  S
O1585     Zr3619   2.342       .  S
O1585     Zr1605   2.338       .  S
O1586     Zr1602   2.430       .  S
O1586      C1609   1.291   1_655  A
O1587     Zr1603   2.427       .  S
O1587      C1610   1.290   1_455  A
O1588     Zr1604   2.422       .  S
O1588      C1611   1.290       .  A
O1589     Zr1605   2.433       .  S
O1589      C1612   1.292       .  A
O1590     Zr1605   2.430       .  S
O1590      C1613   1.290       .  A
O1591     Zr1604   2.428       .  S
O1591      C1614   1.290       .  A
O1592     Zr1606   2.436   1_455  S
O1592      C1615   1.292       .  A
O1593     Zr3622   2.442       .  S
O1593      C1616   1.293       .  A
O1594     Zr1604   2.452       .  S
O1594      C1615   1.295       .  A
O1595     Zr1605   2.432       .  S
O1595      C1616   1.291       .  A
O1596     Zr1602   2.434   1_455  S
O1596      C1611   1.291       .  A
O1597     Zr1603   2.449       .  S
O1597      C1614   1.295       .  A
O1598     Zr3619   2.439       .  S
O1598      C1613   1.293       .  A
O1599     Zr3618   2.430       .  S
O1599      C1612   1.290       .  A
O1600     Zr1606   2.451   1_455  S
O1600      C1609   1.295       .  A
O1601     Zr1606   2.448       .  S
O1601      C1610   1.295       .  A
Zr1602     O3615   2.434       .  S
Zr1602     O3592   2.335       .  S
Zr1602     O1608   2.336   1_655  S
Zr1602     O3636   2.338       .  S
Zr1603     O3614   2.450   1_455  S
Zr1603     O3601   2.342   1_455  S
Zr1603     O3623   2.340   1_455  S
Zr1603     O1618   2.341       .  S
Zr1604     O1608   2.337       .  S
Zr1604     O1618   2.338       .  S
Zr1605     O1607   2.331       .  S
Zr1605     O1620   2.338       .  S
Zr1606     O3609   2.439       .  S
Zr1606     O3623   2.337       .  S
Zr1606     O1608   2.337   1_655  S
Zr1606     O3636   2.341       .  S
Zr1606     O1618   2.343   1_655  S
O1607     Zr3619   2.339       .  S
O1607     Zr3622   2.335       .  S
C1609      C1984   1.486       .  S
C1610      C1993   1.491       .  S
C1611      C1849   1.479       .  S
C1612      C1861   1.486       .  S
C1613      C1825   1.488       .  S
C1614      C1837   1.492       .  S
C1615      C1813   1.493       .  S
C1616      C1789   1.490       .  S
H1617      O1618   0.966       .  S
H1619      O1620   0.966       .  S
O1620     Zr3618   2.344       .  S
O1620     Zr3622   2.340       .  S
O1621     Zr1657   2.433       .  S
O1621      C1632   1.291   1_545  A
O1622     Zr1656   2.427       .  S
O1622      C1633   1.290       .  A
O1623     Zr1629   2.424   1_565  S
O1623      C1634   1.289       .  A
O1624      C1635   1.293       .  A
O1625     Zr1659   2.430       .  S
O1625      C1635   1.291       .  A
O1626     Zr1658   2.432       .  S
O1626      C1634   1.292       .  A
O1627     Zr1629   2.442       .  S
O1627      C1633   1.294       .  A
O1628     Zr1629   2.455   1_565  S
O1628      C1632   1.296       .  A
Zr1629     O1631   2.333   1_545  S
Zr1629     O1637   2.341   1_545  S
O1630     Zr1659   2.340       .  S
O1631     Zr1657   2.339   1_565  S
O1631     Zr1658   2.335       .  S
C1634      C1744   1.484       .  S
C1635      C1729   1.486       .  S
H1636      O1637   0.966       .  S
O1637     Zr1656   2.340   1_565  S
O1637     Zr1658   2.337       .  S
H1638      O1639   0.966       .  S
O1639     Zr1659   2.338       .  S
O1640     Zr1656   2.439       .  S
O1640      C1663   1.292       .  A
O1641     Zr1657   2.441       .  S
O1641      C1664   1.293       .  A
O1642     Zr1658   2.442       .  S
O1642      C1665   1.293       .  A
O1643     Zr1659   2.426       .  S
O1643      C1666   1.290       .  A
O1644     Zr1659   2.441       .  S
O1644      C1667   1.293       .  A
O1645     Zr1658   2.447       .  S
O1645      C1668   1.295       .  A
O1646     Zr1660   2.427   1_565  S
O1646      C1669   1.290       .  A
O1647      C1670   1.290       .  A
O1648     Zr1658   2.426       .  S
O1648      C1669   1.291       .  A
O1649     Zr1659   2.433       .  S
O1649      C1670   1.292       .  A
O1650     Zr1656   2.442   1_565  S
O1650      C1665   1.294       .  A
O1651     Zr1657   2.429   1_565  S
O1651      C1668   1.290       .  A
O1652      C1667   1.289       .  A
O1653      C1666   1.293       .  A
O1654     Zr1660   2.445       .  S
O1654      C1663   1.294       .  A
O1655     Zr1660   2.440       .  S
O1655      C1664   1.292       .  A
Zr1656     O1662   2.335   1_545  S
Zr1657     O1672   2.338   1_545  S
Zr1658     O1662   2.339       .  S
Zr1658     O1672   2.340       .  S
Zr1659     O1661   2.335       .  S
Zr1659     O1674   2.337       .  S
Zr1660     O1662   2.334   1_545  S
Zr1660     O1672   2.339   1_545  S
C1665      C1816   1.492       .  S
C1666      C1804   1.486       .  S
C1667      C1780   1.488       .  S
C1668      C1792   1.489       .  S
C1669      C1753   1.482       .  S
C1670      C1765   1.480       .  S
H1671      O1672   0.966       .  S
H1673      O1674   0.965       .  S
O1675     Zr1711   2.437   1_554  S
O1675      C1686   1.292       .  A
O1676     Zr1710   2.434       .  S
O1676      C1687   1.291       .  A
O1677      C1688   1.290       .  A
O1678     Zr1683   2.436       .  S
O1678      C1689   1.292       .  A
O1679     Zr1713   2.428       .  S
O1679      C1689   1.290       .  A
O1680     Zr1712   2.451       .  S
O1680      C1688   1.295       .  A
O1681     Zr1683   2.444       .  S
O1681      C1687   1.294       .  A
O1682     Zr1683   2.450   1_554  S
O1682      C1686   1.295       .  A
Zr1683     O1684   2.338       .  S
Zr1683     O1693   2.340       .  S
O1684     Zr1710   2.337       .  S
O1684     Zr1713   2.334       .  S
O1685     Zr1712   2.333       .  S
C1688      C1840   1.493       .  S
C1689      C1852   1.481       .  S
H1690      O1691   0.965       .  S
O1691     Zr1712   2.336       .  S
H1692      O1693   0.966       .  S
O1693     Zr1711   2.344       .  S
O1693     Zr1713   2.337       .  S
O1694     Zr1710   2.439       .  S
O1694      C1717   1.292       .  A
O1695     Zr1711   2.453   1_554  S
O1695      C1718   1.296       .  A
O1696     Zr1712   2.417       .  S
O1696      C1719   1.288       .  A
O1697     Zr1713   2.425       .  S
O1697      C1720   1.289       .  A
O1698     Zr1713   2.422       .  S
O1698      C1721   1.289       .  A
O1699     Zr1712   2.424       .  S
O1699      C1722   1.290       .  A
O1700      C1723   1.290       .  A
O1701     Zr1714   2.437       .  S
O1701      C1724   1.293       .  A
O1702     Zr1712   2.443       .  S
O1702      C1723   1.294       .  A
O1703     Zr1713   2.426       .  S
O1703      C1724   1.289       .  A
O1704      C1719   1.294       .  A
O1705      C1722   1.295       .  A
O1706     Zr1711   2.437       .  S
O1706      C1721   1.293       .  A
O1707     Zr1710   2.432       .  S
O1707      C1720   1.292       .  A
O1708     Zr1714   2.448       .  S
O1708      C1717   1.295       .  A
O1709     Zr1714   2.439   1_554  S
O1709      C1718   1.293       .  A
Zr1710     O1728   2.337       .  S
Zr1711     O1715   2.338       .  S
Zr1712     O1716   2.339       .  S
Zr1712     O1726   2.340       .  S
Zr1713     O1715   2.336       .  S
Zr1713     O1728   2.337       .  S
Zr1714     O1715   2.341       .  S
Zr1714     O1728   2.336       .  S
C1719      C1741   1.484       .  S
C1720      C1756   1.483       .  S
C1721      C1768   1.481       .  S
C1722      C1732   1.486       .  S
C1723      C1828   1.488       .  S
C1724      C1864   1.485       .  S
H1725      O1726   0.966       .  S
H1727      O1728   0.966       .  S
C1729      C1730   1.407       .  A
C1729      C1734   1.412       .  A
C1730      C1731   1.400       .  A
C1730      H1735   1.084       .  S
C1731      C1732   1.414       .  A
C1731      O1736   1.372       .  S
C1732      C1733   1.404       .  A
C1733      C1734   1.398       .  A
C1733      H1737   1.083       .  S
C1734      O1738   1.372       .  S
O1736      H1740   0.992       .  S
O1738      H1739   0.992       .  S
C1741      C1742   1.405       .  A
C1741      C1746   1.415       .  A
C1742      C1743   1.396       .  A
C1742      H1747   1.083       .  S
C1743      C1744   1.414       .  A
C1743      O1748   1.372       .  S
C1744      C1745   1.405       .  A
C1745      C1746   1.395       .  A
C1745      H1749   1.083       .  S
C1746      O1750   1.372       .  S
O1748      H1752   0.992       .  S
O1750      H1751   0.992       .  S
C1753      C1754   1.406       .  A
C1753      C1758   1.412       .  A
C1754      C1755   1.396       .  A
C1754      H1759   1.083       .  S
C1755      C1756   1.413       .  A
C1755      O1760   1.372       .  S
C1756      C1757   1.405       .  A
C1757      C1758   1.395       .  A
C1757      H1761   1.083       .  S
C1758      O1762   1.372       .  S
O1760      H1764   0.992       .  S
O1762      H1763   0.992       .  S
C1765      C1766   1.404       .  A
C1765      C1770   1.412       .  A
C1766      C1767   1.395       .  A
C1766      H1771   1.084       .  S
C1767      C1768   1.413       .  A
C1767      O1772   1.372       .  S
C1768      C1769   1.405       .  A
C1769      C1770   1.397       .  A
C1769      H1773   1.083       .  S
C1770      O1774   1.371       .  S
O1772      H1776   0.992       .  S
O1774      H1775   0.991       .  S
C1777      C1778   1.404       .  A
C1777      C1782   1.415       .  A
C1778      C1779   1.396       .  A
C1778      H1783   1.083       .  S
C1779      C1780   1.415       .  A
C1779      O1784   1.372       .  S
C1780      C1781   1.406       .  A
C1781      C1782   1.400       .  A
C1781      H1785   1.083       .  S
C1782      O1786   1.372       .  S
O1784      H1788   0.992       .  S
O1786      H1787   0.991       .  S
C1789      C1790   1.407       .  A
C1789      C1794   1.414       .  A
C1790      C1791   1.401       .  A
C1790      H1795   1.083       .  S
C1791      C1792   1.415       .  A
C1791      O1796   1.372       .  S
C1792      C1793   1.405       .  A
C1793      C1794   1.397       .  A
C1793      H1797   1.083       .  S
C1794      O1798   1.372       .  S
O1796      H1800   0.992       .  S
O1798      H1799   0.992       .  S
C1801      C1802   1.404       .  A
C1801      C1806   1.416       .  A
C1802      C1803   1.397       .  A
C1802      H1807   1.083       .  S
C1803      C1804   1.414       .  A
C1803      O1808   1.372       .  S
C1804      C1805   1.405       .  A
C1805      C1806   1.399       .  A
C1805      H1809   1.083       .  S
C1806      O1810   1.372       .  S
O1808      H1812   0.992       .  S
O1810      H1811   0.992       .  S
C1813      C1814   1.407       .  A
C1813      C1818   1.415       .  A
C1814      C1815   1.402       .  A
C1814      H1819   1.083       .  S
C1815      C1816   1.414       .  A
C1815      O1820   1.372       .  S
C1816      C1817   1.407       .  A
C1817      C1818   1.401       .  A
C1817      H1821   1.083       .  S
C1818      O1822   1.372       .  S
O1820      H1824   0.992       .  S
O1822      H1823   0.992       .  S
C1825      C1826   1.406       .  A
C1825      C1830   1.414       .  A
C1826      C1827   1.399       .  A
C1826      H1831   1.083       .  S
C1827      C1828   1.415       .  A
C1827      O1832   1.372       .  S
C1828      C1829   1.405       .  A
C1829      C1830   1.397       .  A
C1829      H1833   1.083       .  S
C1830      O1834   1.372       .  S
O1832      H1836   0.992       .  S
O1834      H1835   0.992       .  S
C1837      C1838   1.405       .  A
C1837      C1842   1.416       .  A
C1838      C1839   1.399       .  A
C1838      H1843   1.083       .  S
C1839      C1840   1.416       .  A
C1839      O1844   1.372       .  S
C1840      C1841   1.406       .  A
C1841      C1842   1.401       .  A
C1841      H1845   1.083       .  S
C1842      O1846   1.372       .  S
O1844      H1848   0.992       .  S
O1846      H1847   0.992       .  S
C1849      C1850   1.406       .  A
C1849      C1854   1.411       .  A
C1850      C1851   1.397       .  A
C1850      H1855   1.084       .  S
C1851      C1852   1.412       .  A
C1851      O1856   1.372       .  S
C1852      C1853   1.405       .  A
C1853      C1854   1.395       .  A
C1853      H1857   1.083       .  S
C1854      O1858   1.372       .  S
O1856      H1860   0.992       .  S
O1858      H1859   0.992       .  S
C1861      C1862   1.406       .  A
C1861      C1866   1.414       .  A
C1862      C1863   1.397       .  A
C1862      H1867   1.083       .  S
C1863      C1864   1.414       .  A
C1863      O1868   1.372       .  S
C1864      C1865   1.405       .  A
C1865      C1866   1.397       .  A
C1865      H1869   1.083       .  S
C1866      O1870   1.372       .  S
O1868      H1872   0.992       .  S
O1870      H1871   0.992       .  S
C1873      C1874   1.405       .  A
C1874      C1875   1.395       .  A
C1874      H1879   1.083       .  S
C1875      C1876   1.413       .  A
C1875      O1880   1.372       .  S
C1877      C1878   1.401       .  A
C1877      H1881   1.084       .  S
C1878      O1882   1.372       .  S
O1880      H1884   0.992       .  S
O1882      H1883   0.992       .  S
C1885      C1886   1.406       .  A
C1886      C1887   1.401       .  A
C1886      H1891   1.084       .  S
C1887      C1888   1.412       .  A
C1887      O1892   1.372       .  S
C1889      C1890   1.403       .  A
C1889      H1893   1.084       .  S
C1890      O1894   1.372       .  S
O1892      H1896   0.992       .  S
O1894      H1895   0.992       .  S
C1897      C1898   1.407       .  A
C1898      C1899   1.401       .  A
C1898      H1903   1.083       .  S
C1899      C1900   1.415       .  A
C1899      O1904   1.372       .  S
C1901      C1902   1.398       .  A
C1901      H1905   1.083       .  S
C1902      O1906   1.372       .  S
O1904      H1908   0.992       .  S
O1906      H1907   0.992   1_556  S
C1909      C1910   1.406       .  A
C1910      C1911   1.401       .  A
C1910      H1915   1.083       .  S
C1911      C1912   1.415       .  A
C1911      O1916   1.372       .  S
C1913      C1914   1.403       .  A
C1913      H1917   1.083       .  S
C1914      O1918   1.372       .  S
O1916      H1920   0.992       .  S
O1918      H1919   0.992       .  S
C1921      C1926   1.415       .  A
C1922      C1923   1.401       .  A
C1922      H1927   1.083       .  S
C1923      O1928   1.372       .  S
C1924      C1925   1.406       .  A
C1925      C1926   1.399       .  A
C1925      H1929   1.083       .  S
C1926      O1930   1.372       .  S
O1928      H1932   0.992   1_565  S
O1930      H1931   0.992       .  S
C1933      C1938   1.412       .  A
C1934      C1935   1.401       .  A
C1934      H1939   1.082       .  S
C1935      O1940   1.372       .  S
C1936      C1937   1.406       .  A
C1937      C1938   1.399       .  A
C1937      H1941   1.084       .  S
C1938      O1942   1.372       .  S
O1940      H1944   0.992       .  S
O1942      H1943   0.992       .  S
C1945      C1946   1.405       .  A
C1946      C1947   1.399       .  A
C1946      H1951   1.083       .  S
C1947      C1948   1.414       .  A
C1947      O1952   1.372       .  S
C1949      C1950   1.399       .  A
C1949      H1953   1.083       .  S
C1950      O1954   1.372       .  S
O1952      H1956   0.992       .  S
O1954      H1955   0.992   1_545  S
C1957      C1962   1.413       .  A
C1958      C1959   1.403       .  A
C1958      H1963   1.084       .  S
C1959      O1964   1.372       .  S
C1960      C1961   1.406       .  A
C1961      C1962   1.402       .  A
C1961      H1965   1.084       .  S
C1962      O1966   1.372       .  S
O1964      H1968   0.992       .  S
O1966      H1967   0.992       .  S
C1969      C1970   1.404   1_455  A
C1969      C3990   1.413       .  A
C1970      C1971   1.396       .  A
C1970      H1975   1.084       .  S
C1971      C1972   1.412       .  A
C1971      O1976   1.371       .  S
C1972      C3989   1.405   1_655  A
C1973      C3988   1.406       .  A
C1973      C1974   1.395       .  A
C1973      H1977   1.083       .  S
C1974      C3985   1.413       .  A
C1974      O1978   1.372       .  S
O1976      H1980   0.992       .  S
O1978      H1979   0.992       .  S
C1981      C3998   1.406   1_455  A
C1981      C1986   1.411       .  A
C1982      C3997   1.404       .  A
C1982      C1983   1.396       .  A
C1982      H1987   1.084       .  S
C1983      C4000   1.414       .  A
C1983      O1988   1.372       .  S
C1984      C3999   1.413   1_455  A
C1984      C1985   1.405       .  A
C1985      C1986   1.401       .  A
C1985      H1989   1.084       .  S
C1986      O1990   1.372       .  S
O1988      H1992   0.992       .  S
O1990      H1991   0.992       .  S
C1993      C4010   1.405   1_655  A
C1993      C1998   1.416       .  A
C1994      C4009   1.406       .  A
C1994      C1995   1.397       .  A
C1994      H1999   1.083       .  S
C1995      C4012   1.413       .  A
C1995      O2000   1.372       .  S
C1996      C4011   1.415       .  A
C1996      C1997   1.406   1_455  A
C1997      C1998   1.400       .  A
C1997      H2001   1.083       .  S
C1998      O2002   1.372       .  S
O2000      H2004   0.992       .  S
O2002      H2003   0.992       .  S
C2005      C4022   1.404   1_455  A
C2005      C2010   1.412       .  A
C2006      C4021   1.407       .  A
C2006      C2007   1.397       .  A
C2006      H2011   1.083       .  S
C2007      C4024   1.413       .  A
C2007      O2012   1.372       .  S
C2008      C4023   1.413   1_455  A
C2008      C2009   1.406       .  A
C2009      C2010   1.398       .  A
C2009      H2013   1.084       .  S
C2010      O2014   1.372       .  S
O2012      H2016   0.992       .  S
O2014      H2015   0.992       .  S
O2017     Zr2053   2.439       .  S
O2017      C2028   1.293       .  A
O2018     Zr2052   2.429   1_545  S
O2018      C2029   1.291       .  A
O2019     Zr2025   2.435       .  S
O2019      C2030   1.292       .  A
O2020      C2031   1.295       .  A
O2021     Zr2055   2.425   1_545  S
O2021      C2031   1.289       .  A
O2022     Zr2054   2.439   1_556  S
O2022      C2030   1.293       .  A
O2023     Zr2529   2.434       .  S
O2023      C2029   1.292       .  A
O2024     Zr2025   2.431   1_554  S
O2024      C2028   1.291       .  A
Zr2025     O2527   2.434       .  S
Zr2025     O2027   2.340   1_556  S
Zr2025     O2537   2.337       .  S
O2026     Zr2559   2.338   1_545  S
O2027     Zr2053   2.338       .  S
O2027     Zr2054   2.339       .  S
C2028      C2509   1.478       .  S
C2029      C2473   1.478       .  S
C2030      C2413   1.485       .  S
C2031      C2392   1.485       .  S
H2032      O2033   0.966       .  S
O2033     Zr2529   2.338       .  S
O2033     Zr2052   2.336   1_545  S
O2033     Zr2558   2.342       .  S
H2034      O2035   0.966       .  S
O2035     Zr2055   2.342   1_545  S
O2036     Zr3060   2.430       .  S
O2036      C2059   1.291       .  A
O2037     Zr3061   2.432       .  S
O2037      C2060   1.291       .  A
O2038     Zr2558   2.433       .  S
O2038      C2061   1.291       .  A
O2039     Zr2559   2.440       .  S
O2039      C2062   1.293       .  A
O2040     Zr2055   2.430       .  S
O2040      C2063   1.290       .  A
O2041     Zr2054   2.426       .  S
O2041      C2064   1.290       .  A
O2042     Zr2056   2.434   1_554  S
O2042      C2065   1.291       .  A
O2043      C2066   1.291   1_556  A
O2044     Zr3062   2.435   1_554  S
O2044      C2065   1.292       .  A
O2045     Zr3063   2.442       .  S
O2045      C2066   1.294       .  A
O2046     Zr2052   2.445   1_545  S
O2046      C2061   1.294       .  A
O2047     Zr2053   2.444       .  S
O2047      C2064   1.294       .  A
O2048      C2063   1.294       .  A
O2049      C2062   1.292       .  A
O2050     Zr2560   2.440       .  S
O2050      C2059   1.293       .  A
O2051     Zr2056   2.437   1_554  S
O2051      C2060   1.293       .  A
Zr2052     O3044   2.421       .  S
Zr2052     O3066   2.340       .  S
Zr2053     O3045   2.434   1_545  S
Zr2053     O3076   2.342   1_545  S
Zr2054     O2542   2.420   1_544  S
Zr2054     O3052   2.446   1_544  S
Zr2054     O2537   2.343   1_554  S
Zr2054     O3570   2.335   1_544  S
Zr2054     O3076   2.338   1_545  S
Zr2055     O2543   2.446   1_564  S
Zr2055     O3053   2.431       .  S
Zr2055     O2530   2.336   1_564  S
Zr2055     O3065   2.338       .  S
Zr2055     O3582   2.335   1_554  S
Zr2056     O2554   2.435       .  S
Zr2056     O2562   2.337       .  S
Zr2056     O2068   2.336   1_556  S
O2057     Zr3063   2.335       .  S
O2058     Zr3060   2.335       .  S
O2058     Zr3566   2.338       .  S
O2058     Zr2560   2.340       .  S
C2059      C2485   1.480       .  S
C2060      C2500   1.487       .  S
C2061      C2440   1.486       .  S
C2062      C2425   1.483       .  S
C2063      C2464   1.488       .  S
C2064      C2449   1.483       .  S
C2065      C2401   1.484       .  S
C2066      C2377   1.486   1_554  S
H2067      O2068   0.965       .  S
O2068     Zr3061   2.335       .  S
O2068     Zr3062   2.332   1_554  S
H2069      O2070   0.965       .  S
O2070     Zr3567   2.339       .  S
O2071     Zr2107   2.428       .  S
O2071      C2082   1.291       .  A
O2072     Zr2106   2.432       .  S
O2072      C2083   1.291       .  A
O2073     Zr2079   2.428       .  S
O2073      C2084   1.290       .  A
O2074      C2085   1.293       .  A
O2075     Zr2109   2.432       .  S
O2075      C2085   1.291       .  A
O2076     Zr2108   2.440       .  S
O2076      C2084   1.294       .  A
O2077     Zr2079   2.430       .  S
O2077      C2083   1.291       .  A
O2078     Zr2079   2.438       .  S
O2078      C2082   1.292       .  A
Zr2079     O2081   2.339       .  S
Zr2079     O2087   2.344       .  S
O2080     Zr2109   2.333       .  S
O2081     Zr2107   2.337       .  S
O2081     Zr2108   2.344       .  S
C2082      C2512   1.478       .  S
C2083      C2476   1.478       .  S
C2084      C2305   1.488       .  S
C2085      C2281   1.484       .  S
H2086      O2087   0.966       .  S
O2087     Zr2106   2.336       .  S
O2087     Zr2108   2.340       .  S
H2088      O2089   0.966       .  S
O2089     Zr2109   2.341       .  S
O2090     Zr2106   2.428       .  S
O2090      C2113   1.290       .  A
O2091     Zr2107   2.427       .  S
O2091      C2114   1.290       .  A
O2092     Zr2108   2.445       .  S
O2092      C2115   1.294       .  A
O2093     Zr2109   2.440       .  S
O2093      C2116   1.293       .  A
O2094     Zr2109   2.434       .  S
O2094      C2117   1.292       .  A
O2095     Zr2108   2.434       .  S
O2095      C2118   1.292       .  A
O2096     Zr2110   2.438       .  S
O2096      C2119   1.292       .  A
O2097      C2120   1.293       .  A
O2098     Zr2108   2.450       .  S
O2098      C2119   1.295       .  A
O2099     Zr2109   2.433       .  S
O2099      C2120   1.291       .  A
O2100     Zr2106   2.426       .  S
O2100      C2115   1.289       .  A
O2101     Zr2107   2.453       .  S
O2101      C2118   1.296       .  A
O2102      C2117   1.294       .  A
O2103      C2116   1.293       .  A
O2104     Zr2110   2.437       .  S
O2104      C2113   1.293       .  A
O2105     Zr2110   2.444       .  S
O2105      C2114   1.294       .  A
Zr2106     O2112   2.335       .  S
Zr2107     O2122   2.339       .  S
Zr2108     O2112   2.332       .  S
Zr2108     O2122   2.341       .  S
Zr2109     O2111   2.337       .  S
Zr2109     O2124   2.338       .  S
Zr2110     O2112   2.340       .  S
Zr2110     O2122   2.340       .  S
C2113      C2488   1.478       .  S
C2114      C2497   1.487       .  S
C2115      C2353   1.483       .  S
C2116      C2365   1.489       .  S
C2117      C2329   1.486       .  S
C2118      C2341   1.490       .  S
C2119      C2317   1.490       .  S
C2120      C2293   1.488       .  S
H2121      O2122   0.966       .  S
H2123      O2124   0.966       .  S
O2125     Zr2161   2.442       .  S
O2125      C2136   1.293       .  A
O2126     Zr2160   2.425       .  S
O2126      C2137   1.290       .  A
O2127     Zr2133   2.421       .  S
O2127      C2138   1.289       .  A
O2128     Zr3141   2.429       .  S
O2128      C2139   1.290       .  A
O2129     Zr2163   2.437       .  S
O2129      C2139   1.293       .  A
O2130     Zr2162   2.443       .  S
O2130      C2138   1.294       .  A
O2131     Zr2133   2.444       .  S
O2131      C2137   1.294       .  A
O2132     Zr2133   2.442       .  S
O2132      C2136   1.294       .  A
Zr2133     O3136   2.418       .  S
Zr2133     O3142   2.335       .  S
Zr2133     O2135   2.339       .  S
Zr2133     O3151   2.340       .  S
Zr2133     O2141   2.337       .  S
O2134     Zr3141   2.335       .  S
O2134     Zr3168   2.339       .  S
O2134     Zr2163   2.338       .  S
O2135     Zr2161   2.342       .  S
O2135     Zr2162   2.339       .  S
C2136      C3469   1.490       .  S
C2137      C3460   1.484       .  S
C2138      C2248   1.479       .  S
C2139      C2233   1.483       .  S
H2140      O2141   0.966       .  S
O2141     Zr2160   2.338       .  S
O2141     Zr2162   2.336       .  S
H2142      O2143   0.966       .  S
O2143     Zr3141   2.339       .  S
O2143     Zr3169   2.339       .  S
O2143     Zr2163   2.336       .  S
O2144     Zr2160   2.432       .  S
O2144      C2167   1.291       .  A
O2145     Zr2161   2.440       .  S
O2145      C2168   1.293       .  A
O2146     Zr2162   2.445       .  S
O2146      C2169   1.294       .  A
O2147     Zr2163   2.433       .  S
O2147      C2170   1.291       .  A
O2148     Zr2163   2.450       .  S
O2148      C2171   1.295       .  A
O2149     Zr2162   2.448       .  S
O2149      C2172   1.295       .  A
O2150     Zr2164   2.438       .  S
O2150      C2173   1.292       .  A
O2151     Zr3172   2.436       .  S
O2151      C2174   1.292       .  A
O2152     Zr2162   2.433       .  S
O2152      C2173   1.292       .  A
O2153     Zr2163   2.427       .  S
O2153      C2174   1.291       .  A
O2154     Zr2160   2.436       .  S
O2154      C2169   1.292       .  A
O2155     Zr2161   2.422       .  S
O2155      C2172   1.289       .  A
O2156     Zr3169   2.424       .  S
O2156      C2171   1.289       .  A
O2157     Zr3168   2.435       .  S
O2157      C2170   1.292       .  A
O2158     Zr2164   2.433       .  S
O2158      C2167   1.292       .  A
O2159     Zr2164   2.431       .  S
O2159      C2168   1.291       .  A
Zr2160     O3165   2.432       .  S
Zr2160     O3142   2.338       .  S
Zr2160     O2166   2.333       .  S
Zr2160     O3186   2.335       .  S
Zr2161     O3164   2.431       .  S
Zr2161     O3151   2.337       .  S
Zr2161     O3173   2.331       .  S
Zr2161     O2176   2.341       .  S
Zr2162     O2166   2.339       .  S
Zr2162     O2176   2.342       .  S
Zr2163     O2165   2.337       .  S
Zr2163     O2178   2.343       .  S
Zr2164     O3159   2.431       .  S
Zr2164     O3173   2.339       .  S
Zr2164     O2166   2.332       .  S
Zr2164     O3186   2.336       .  S
Zr2164     O2176   2.337       .  S
O2165     Zr3169   2.335       .  S
O2165     Zr3172   2.335       .  S
C2167      C3445   1.483       .  S
C2168      C3436   1.487       .  S
C2169      C2320   1.488       .  S
C2170      C2308   1.488       .  S
C2171      C2284   1.485       .  S
C2172      C2296   1.488       .  S
C2173      C2257   1.485       .  S
C2174      C2269   1.474       .  S
H2175      O2176   0.966       .  S
H2177      O2178   0.966       .  S
O2178     Zr3168   2.339       .  S
O2178     Zr3172   2.338       .  S
O2179     Zr2215   2.440       .  S
O2179      C2190   1.293       .  A
O2180     Zr2214   2.428       .  S
O2180      C2191   1.290       .  A
O2181     Zr2691   2.438       .  S
O2181      C2192   1.292       .  A
O2182     Zr2187   2.435       .  S
O2182      C2193   1.292       .  A
O2183     Zr2217   2.431       .  S
O2183      C2193   1.291       .  A
O2184     Zr2216   2.449       .  S
O2184      C2192   1.295       .  A
O2185     Zr2187   2.450       .  S
O2185      C2191   1.295       .  A
O2186     Zr2187   2.442       .  S
O2186      C2190   1.294       .  A
Zr2187     O2685   2.425       .  S
Zr2187     O2188   2.336       .  S
Zr2187     O2693   2.340       .  S
Zr2187     O2197   2.340       .  S
Zr2187     O2699   2.342       .  S
O2188     Zr2214   2.336       .  S
O2188     Zr2217   2.334       .  S
O2189     Zr2691   2.337       .  S
O2189     Zr2719   2.338       .  S
O2189     Zr2216   2.340       .  S
C2190      C2920   1.490       .  S
C2191      C2908   1.491       .  S
C2192      C2344   1.490       .  S
C2193      C2356   1.482       .  S
H2194      O2195   0.965       .  S
O2195     Zr2691   2.339       .  S
O2195     Zr2718   2.340   1_554  S
O2195     Zr2216   2.333       .  S
H2196      O2197   0.966       .  S
O2197     Zr2215   2.342       .  S
O2197     Zr2217   2.339       .  S
O2198     Zr2214   2.434       .  S
O2198      C2221   1.291       .  A
O2199     Zr2215   2.433       .  S
O2199      C2222   1.292       .  A
O2200     Zr2216   2.435       .  S
O2200      C2223   1.292       .  A
O2201     Zr2217   2.422       .  S
O2201      C2224   1.289       .  A
O2202     Zr2217   2.417       .  S
O2202      C2225   1.288       .  A
O2203     Zr2216   2.426       .  S
O2203      C2226   1.290       .  A
O2204     Zr2722   2.426   1_554  S
O2204      C2227   1.290       .  A
O2205     Zr2218   2.439       .  S
O2205      C2228   1.293       .  A
O2206     Zr2216   2.449       .  S
O2206      C2227   1.295       .  A
O2207     Zr2217   2.441       .  S
O2207      C2228   1.292       .  A
O2208     Zr2718   2.428   1_554  S
O2208      C2223   1.291       .  A
O2209     Zr2719   2.437       .  S
O2209      C2226   1.293       .  A
O2210     Zr2215   2.442       .  S
O2210      C2225   1.293       .  A
O2211     Zr2214   2.446       .  S
O2211      C2224   1.294       .  A
O2212     Zr2218   2.440       .  S
O2212      C2221   1.294       .  A
O2213     Zr2218   2.443       .  S
O2213      C2222   1.294       .  A
Zr2214     O2712   2.446       .  S
Zr2214     O2699   2.344       .  S
Zr2214     O2724   2.334       .  S
Zr2214     O2232   2.341       .  S
Zr2215     O2713   2.436       .  S
Zr2215     O2693   2.339       .  S
Zr2215     O2219   2.336       .  S
Zr2215     O2734   2.344       .  S
Zr2216     O2220   2.337       .  S
Zr2216     O2230   2.341       .  S
Zr2217     O2219   2.335       .  S
Zr2217     O2232   2.336       .  S
Zr2218     O2708   2.438       .  S
Zr2218     O2219   2.336       .  S
Zr2218     O2724   2.335       .  S
Zr2218     O2232   2.340       .  S
Zr2218     O2734   2.341       .  S
O2220     Zr2718   2.332   1_554  S
O2220     Zr2722   2.339   1_554  S
C2221      C2884   1.490       .  S
C2222      C2893   1.485       .  S
C2223      C2245   1.478       .  S
C2224      C2260   1.485       .  S
C2225      C2272   1.474       .  S
C2226      C2236   1.481       .  S
C2227      C2332   1.484       .  S
C2228      C2368   1.488       .  S
H2229      O2230   0.966       .  S
O2230     Zr2719   2.341       .  S
O2230     Zr2722   2.339   1_554  S
H2231      O2232   0.966       .  S
C2233      C2234   1.406       .  A
C2233      C2238   1.413       .  A
C2234      C2235   1.398       .  A
C2234      H2239   1.084       .  S
C2235      C2236   1.412       .  A
C2235      O2240   1.372       .  S
C2236      C2237   1.404       .  A
C2237      C2238   1.397       .  A
C2237      H2241   1.084       .  S
C2238      O2242   1.372       .  S
O2240      H2244   0.992       .  S
O2242      H2243   0.992       .  S
C2245      C2246   1.404       .  A
C2245      C2250   1.411       .  A
C2246      C2247   1.398       .  A
C2246      H2251   1.084       .  S
C2247      C2248   1.412       .  A
C2247      O2252   1.372       .  S
C2248      C2249   1.404       .  A
C2249      C2250   1.396       .  A
C2249      H2253   1.084       .  S
C2250      O2254   1.372       .  S
O2252      H2256   0.992       .  S
O2254      H2255   0.992       .  S
C2257      C2258   1.405       .  A
C2257      C2262   1.413       .  A
C2258      C2259   1.398       .  A
C2258      H2263   1.084       .  S
C2259      C2260   1.414       .  A
C2259      O2264   1.372       .  S
C2260      C2261   1.404       .  A
C2261      C2262   1.398       .  A
C2261      H2265   1.083       .  S
C2262      O2266   1.372       .  S
O2264      H2268   0.992       .  S
O2266      H2267   0.992       .  S
C2269      C2270   1.404       .  A
C2269      C2274   1.409       .  A
C2270      C2271   1.397       .  A
C2270      H2275   1.084       .  S
C2271      C2272   1.411       .  A
C2271      O2276   1.372       .  S
C2272      C2273   1.403       .  A
C2273      C2274   1.398       .  A
C2273      H2277   1.084       .  S
C2274      O2278   1.372       .  S
O2276      H2280   0.992       .  S
O2278      H2279   0.992       .  S
C2281      C2282   1.404       .  A
C2281      C2286   1.412       .  A
C2282      C2283   1.399       .  A
C2282      H2287   1.083       .  S
C2283      C2284   1.414       .  A
C2283      O2288   1.372       .  S
C2284      C2285   1.405       .  A
C2285      C2286   1.400       .  A
C2285      H2289   1.084       .  S
C2286      O2290   1.372       .  S
O2288      H2292   0.992       .  S
O2290      H2291   0.992       .  S
C2293      C2294   1.406       .  A
C2293      C2298   1.414       .  A
C2294      C2295   1.399       .  A
C2294      H2299   1.083       .  S
C2295      C2296   1.415       .  A
C2295      O2300   1.373       .  S
C2296      C2297   1.405       .  A
C2297      C2298   1.397       .  A
C2297      H2301   1.083       .  S
C2298      O2302   1.371       .  S
O2300      H2304   0.992       .  S
O2302      H2303   0.992       .  S
C2305      C2306   1.406       .  A
C2305      C2310   1.414       .  A
C2306      C2307   1.397       .  A
C2306      H2311   1.083       .  S
C2307      C2308   1.414       .  A
C2307      O2312   1.372       .  S
C2308      C2309   1.406       .  A
C2309      C2310   1.399       .  A
C2309      H2313   1.083       .  S
C2310      O2314   1.372       .  S
O2312      H2316   0.992       .  S
O2314      H2315   0.991       .  S
C2317      C2318   1.406       .  A
C2317      C2322   1.415       .  A
C2318      C2319   1.400       .  A
C2318      H2323   1.083       .  S
C2319      C2320   1.412       .  A
C2319      O2324   1.372       .  S
C2320      C2321   1.406       .  A
C2321      C2322   1.402       .  A
C2321      H2325   1.084       .  S
C2322      O2326   1.372       .  S
O2324      H2328   0.992       .  S
O2326      H2327   0.992       .  S
C2329      C2330   1.406       .  A
C2329      C2334   1.413       .  A
C2330      C2331   1.401       .  A
C2330      H2335   1.084       .  S
C2331      C2332   1.414       .  A
C2331      O2336   1.372       .  S
C2332      C2333   1.403       .  A
C2333      C2334   1.397       .  A
C2333      H2337   1.084       .  S
C2334      O2338   1.372       .  S
O2336      H2340   0.992       .  S
O2338      H2339   0.992       .  S
C2341      C2342   1.406       .  A
C2341      C2346   1.415       .  A
C2342      C2343   1.402       .  A
C2342      H2347   1.083       .  S
C2343      C2344   1.414       .  A
C2343      O2348   1.372       .  S
C2344      C2345   1.405       .  A
C2345      C2346   1.401       .  A
C2345      H2349   1.083       .  S
C2346      O2350   1.372       .  S
O2348      H2352   0.992       .  S
O2350      H2351   0.992       .  S
C2353      C2354   1.404       .  A
C2353      C2358   1.414       .  A
C2354      C2355   1.398       .  A
C2354      H2359   1.084       .  S
C2355      C2356   1.413       .  A
C2355      O2360   1.372       .  S
C2356      C2357   1.405       .  A
C2357      C2358   1.398       .  A
C2357      H2361   1.084       .  S
C2358      O2362   1.372       .  S
O2360      H2364   0.992       .  S
O2362      H2363   0.992       .  S
C2365      C2366   1.408       .  A
C2365      C2370   1.412       .  A
C2366      C2367   1.404       .  A
C2366      H2371   1.083       .  S
C2367      C2368   1.413       .  A
C2367      O2372   1.372       .  S
C2368      C2369   1.405       .  A
C2369      C2370   1.398       .  A
C2369      H2373   1.083       .  S
C2370      O2374   1.372       .  S
O2372      H2376   0.992       .  S
O2374      H2375   0.992       .  S
C2377      C2378   1.405   1_556  A
C2377      C2886   1.413       .  A
C2378      C2379   1.398       .  A
C2378      H2383   1.084       .  S
C2379      C2380   1.413       .  A
C2379      O2384   1.372       .  S
C2380      C2725   1.488   1_554  S
C2380      C2885   1.407   1_554  A
C2381      C2884   1.406       .  A
C2381      C2382   1.399       .  A
C2381      H2385   1.083       .  S
C2382      C2881   1.414       .  A
C2382      O2386   1.372       .  S
O2384      H2388   0.992       .  S
O2386      H2387   0.992       .  S
C2389      C2726   1.485       .  S
C2389      C2390   1.406   1_554  A
C2389      C2898   1.412       .  A
C2390      C2391   1.399       .  A
C2390      H2395   1.084       .  S
C2391      C2392   1.414   1_556  A
C2391      O2396   1.372       .  S
C2392      C2897   1.405       .  A
C2393      C2896   1.406       .  A
C2393      C2394   1.398       .  A
C2393      H2397   1.084       .  S
C2394      C2893   1.411       .  A
C2394      O2398   1.372       .  S
O2396      H2400   0.992       .  S
O2398      H2399   0.992       .  S
C2401      C2402   1.405   1_554  A
C2401      C2910   1.413       .  A
C2402      C2403   1.398       .  A
C2402      H2407   1.083       .  S
C2403      C2404   1.414   1_556  A
C2403      O2408   1.372       .  S
C2404      C2695   1.484       .  S
C2404      C2909   1.405       .  A
C2405      C2908   1.405       .  A
C2405      C2406   1.400       .  A
C2405      H2409   1.083       .  S
C2406      C2905   1.417       .  A
C2406      O2410   1.372       .  S
O2408      H2412   0.992       .  S
O2410      H2411   0.992       .  S
C2413      C2414   1.406       .  A
C2413      C2922   1.413   1_556  A
C2414      C2415   1.399       .  A
C2414      H2419   1.084       .  S
C2415      C2416   1.414       .  A
C2415      O2420   1.372       .  S
C2416      C2694   1.483       .  S
C2416      C2921   1.404   1_556  A
C2417      C2920   1.406       .  A
C2417      C2418   1.399       .  A
C2417      H2421   1.083       .  S
C2418      C2917   1.411       .  A
C2418      O2422   1.371       .  S
O2420      H2424   0.992       .  S
O2422      H2423   0.992       .  S
C2425      C3434   1.406       .  A
C2425      C2430   1.411   1_565  A
C2426      C3433   1.407       .  A
C2426      C2427   1.400       .  A
C2426      H2431   1.083       .  S
C2427      C3436   1.413       .  A
C2427      O2432   1.372       .  S
C2428      C3176   1.483       .  S
C2428      C3435   1.410       .  A
C2428      C2429   1.406   1_565  A
C2429      C2430   1.400       .  A
C2429      H2433   1.084       .  S
C2430      O2434   1.372       .  S
O2432      H2436   0.992       .  S
O2434      H2435   0.992       .  S
C2437      C3175   1.485       .  S
C2437      C3446   1.405       .  A
C2437      C2442   1.413   1_545  A
C2438      C3445   1.405       .  A
C2438      C2439   1.398       .  A
C2438      H2443   1.084       .  S
C2439      C3448   1.413       .  A
C2439      O2444   1.372       .  S
C2440      C3447   1.414       .  A
C2440      C2441   1.404   1_545  A
C2441      C2442   1.399       .  A
C2441      H2445   1.083       .  S
C2442      O2446   1.371       .  S
O2444      H2448   0.992       .  S
O2446      H2447   0.992       .  S
C2449      C2450   1.404       .  A
C2449      C3462   1.414   1_545  A
C2450      C2451   1.398       .  A
C2450      H2455   1.084       .  S
C2451      C2452   1.413       .  A
C2451      O2456   1.372       .  S
C2452      C3145   1.483       .  S
C2452      C3461   1.404   1_545  A
C2453      C3460   1.405       .  A
C2453      C2454   1.400       .  A
C2453      H2457   1.084       .  S
C2454      C3457   1.414       .  A
C2454      O2458   1.372       .  S
O2456      H2460   0.992       .  S
O2458      H2459   0.992       .  S
C2461      C3144   1.487   1_565  S
C2461      C3470   1.405   1_565  A
C2461      C2466   1.415       .  A
C2462      C3469   1.407       .  A
C2462      C2463   1.401       .  A
C2462      H2467   1.084       .  S
C2463      C3472   1.414       .  A
C2463      O2468   1.372       .  S
C2464      C3471   1.415   1_565  A
C2464      C2465   1.405       .  A
C2465      C2466   1.399       .  A
C2465      H2469   1.083       .  S
C2466      O2470   1.372       .  S
O2468      H2472   0.992       .  S
O2470      H2471   0.992       .  S
C2473      C2474   1.404       .  A
C2474      C2475   1.397       .  A
C2474      H2479   1.084       .  S
C2475      C2476   1.410       .  A
C2475      O2480   1.372       .  S
C2477      C2478   1.397       .  A
C2477      H2481   1.084       .  S
C2478      O2482   1.372       .  S
O2480      H2484   0.992       .  S
O2482      H2483   0.992       .  S
C2485      C2490   1.411       .  A
C2486      C2487   1.396       .  A
C2486      H2491   1.083       .  S
C2487      O2492   1.372       .  S
C2488      C2489   1.403       .  A
C2489      C2490   1.395       .  A
C2489      H2493   1.084       .  S
C2490      O2494   1.372       .  S
O2492      H2496   0.992   1_655  S
O2494      H2495   0.992       .  S
C2497      C2502   1.414       .  A
C2498      C2499   1.395       .  A
C2498      H2503   1.083       .  S
C2499      O2504   1.372       .  S
C2500      C2501   1.405       .  A
C2501      C2502   1.398       .  A
C2501      H2505   1.083       .  S
C2502      O2506   1.372       .  S
O2504      H2508   0.992   1_655  S
O2506      H2507   0.992       .  S
C2509      C2514   1.412       .  A
C2510      C2511   1.394       .  A
C2510      H2515   1.084       .  S
C2511      O2516   1.372       .  S
C2512      C2513   1.405       .  A
C2513      C2514   1.400       .  A
C2513      H2517   1.084       .  S
C2514      O2518   1.372       .  S
O2516      H2520   0.992       .  S
O2518      H2519   0.992       .  S
O2521     Zr2557   2.442       .  S
O2521      C2532   1.294       .  A
O2522     Zr2556   2.427       .  S
O2522      C2533   1.290       .  A
O2523     Zr2529   2.450       .  S
O2523      C2534   1.295       .  A
O2524      C2535   1.292       .  A
O2525     Zr2559   2.440   1_545  S
O2525      C2535   1.293       .  A
O2526     Zr2558   2.429       .  S
O2526      C2534   1.291       .  A
O2527      C2533   1.292       .  A
O2528     Zr2529   2.428       .  S
O2528      C2532   1.291       .  A
Zr2529     O2531   2.337       .  S
O2531     Zr2557   2.333       .  S
O2531     Zr2558   2.337       .  S
C2532      C3013   1.482       .  S
C2533      C2977   1.487       .  S
C2534      C2917   1.490       .  S
C2535      C2896   1.484       .  S
H2536      O2537   0.966       .  S
O2537     Zr2556   2.338       .  S
H2538      O2539   0.966       .  S
O2539     Zr2559   2.344   1_545  S
O2540     Zr3564   2.423       .  S
O2540      C2563   1.290       .  A
O2541     Zr3565   2.421       .  S
O2541      C2564   1.289       .  A
O2542      C2565   1.289       .  A
O2543      C2566   1.295       .  A
O2544     Zr2559   2.433       .  S
O2544      C2567   1.291       .  A
O2545     Zr2558   2.432       .  S
O2545      C2568   1.291       .  A
O2546     Zr2560   2.422       .  S
O2546      C2569   1.289       .  A
O2547      C2570   1.292       .  A
O2548     Zr3566   2.453       .  S
O2548      C2569   1.296       .  A
O2549     Zr3567   2.436       .  S
O2549      C2570   1.292       .  A
O2550     Zr2556   2.440       .  S
O2550      C2565   1.294   1_545  A
O2551     Zr2557   2.440       .  S
O2551      C2568   1.294       .  A
O2552      C2567   1.296       .  A
O2553      C2566   1.291       .  A
O2554      C2563   1.292       .  A
O2555     Zr2560   2.439       .  S
O2555      C2564   1.294       .  A
Zr2556     O3548   2.423   1_545  S
Zr2556     O3570   2.336   1_545  S
Zr2557     O3549   2.431   1_545  S
Zr2557     O3580   2.345   1_545  S
Zr2558     O3556   2.439   1_545  S
Zr2558     O3066   2.335   1_545  S
Zr2558     O3580   2.338   1_545  S
Zr2559     O3557   2.444       .  S
Zr2559     O3569   2.338       .  S
Zr2559     O3078   2.332       .  S
Zr2560     O2572   2.340       .  S
O2561     Zr3567   2.334       .  S
O2562     Zr3564   2.338       .  S
O2562     Zr3062   2.337       .  S
C2563      C2989   1.479       .  S
C2564      C3004   1.486       .  S
C2565      C2944   1.485       .  S
C2566      C2929   1.492       .  S
C2567      C2968   1.490       .  S
C2568      C2953   1.491       .  S
C2569      C2905   1.489       .  S
C2570      C2881   1.491       .  S
H2571      O2572   0.965       .  S
O2572     Zr3565   2.336       .  S
O2572     Zr3566   2.337       .  S
H2573      O2574   0.966       .  S
O2574     Zr3063   2.338   1_556  S
O2575     Zr2611   2.432       .  S
O2575      C2586   1.292       .  A
O2576     Zr2610   2.422       .  S
O2576      C2587   1.289       .  A
O2577     Zr2583   2.440       .  S
O2577      C2588   1.293       .  A
O2578      C2589   1.294       .  A
O2579     Zr2613   2.433       .  S
O2579      C2589   1.291       .  A
O2580     Zr2612   2.446       .  S
O2580      C2588   1.294       .  A
O2581     Zr2583   2.438       .  S
O2581      C2587   1.293       .  A
O2582     Zr2583   2.439       .  S
O2582      C2586   1.293       .  A
Zr2583     O2585   2.338       .  S
Zr2583     O2591   2.344       .  S
O2584     Zr2613   2.338       .  S
O2585     Zr2611   2.335       .  S
O2585     Zr2612   2.338       .  S
C2586      C3016   1.483       .  S
C2587      C2980   1.486       .  S
C2588      C2809   1.489       .  S
C2589      C2785   1.488       .  S
H2590      O2591   0.966       .  S
O2591     Zr2610   2.339       .  S
O2591     Zr2612   2.341       .  S
H2592      O2593   0.966       .  S
O2593     Zr2613   2.343       .  S
O2594     Zr2610   2.424       .  S
O2594      C2617   1.290       .  A
O2595     Zr2611   2.431       .  S
O2595      C2618   1.291       .  A
O2596     Zr2612   2.437       .  S
O2596      C2619   1.292       .  A
O2597     Zr2613   2.439       .  S
O2597      C2620   1.293       .  A
O2598     Zr2613   2.434       .  S
O2598      C2621   1.291       .  A
O2599     Zr2612   2.429       .  S
O2599      C2622   1.290       .  A
O2600     Zr2614   2.433       .  S
O2600      C2623   1.291       .  A
O2601      C2624   1.293       .  A
O2602     Zr2612   2.447       .  S
O2602      C2623   1.295       .  A
O2603     Zr2613   2.430       .  S
O2603      C2624   1.291       .  A
O2604     Zr2610   2.439       .  S
O2604      C2619   1.292       .  A
O2605     Zr2611   2.446       .  S
O2605      C2622   1.294       .  A
O2606      C2621   1.295       .  A
O2607      C2620   1.290       .  A
O2608     Zr2614   2.435       .  S
O2608      C2617   1.292       .  A
O2609     Zr2614   2.435       .  S
O2609      C2618   1.292       .  A
Zr2610     O2616   2.332       .  S
Zr2611     O2626   2.339       .  S
Zr2612     O2616   2.337       .  S
Zr2612     O2626   2.341       .  S
Zr2613     O2615   2.336       .  S
Zr2613     O2628   2.335       .  S
Zr2614     O2616   2.339       .  S
Zr2614     O2626   2.341       .  S
C2617      C2992   1.481       .  S
C2618      C3001   1.487       .  S
C2619      C2857   1.487       .  S
C2620      C2869   1.489       .  S
C2621      C2833   1.492       .  S
C2622      C2845   1.486       .  S
C2623      C2821   1.490       .  S
C2624      C2797   1.477       .  S
H2625      O2626   0.966       .  S
H2627      O2628   0.965       .  S
O2629     Zr2665   2.426       .  S
O2629      C2640   1.290       .  A
O2630     Zr2664   2.428       .  S
O2630      C2641   1.290       .  A
O2631     Zr2637   2.429       .  S
O2631      C2642   1.291       .  A
O2632     Zr3645   2.432   1_545  S
O2632      C2643   1.291       .  A
O2633     Zr2667   2.440       .  S
O2633      C2643   1.294       .  A
O2634     Zr2666   2.439       .  S
O2634      C2642   1.294       .  A
O2635     Zr2637   2.453       .  S
O2635      C2641   1.296       .  A
O2636     Zr2637   2.446       .  S
O2636      C2640   1.295       .  A
Zr2637     O3640   2.429       .  S
Zr2637     O3646   2.335       .  S
Zr2637     O2639   2.339       .  S
Zr2637     O3655   2.338       .  S
Zr2637     O2645   2.340       .  S
O2638     Zr3645   2.337   1_545  S
O2638     Zr3672   2.338   1_545  S
O2638     Zr2667   2.338       .  S
O2639     Zr2665   2.334       .  S
O2639     Zr2666   2.333       .  S
C2640      C3973   1.487       .  S
C2641      C3964   1.494       .  S
C2642      C2752   1.486       .  S
C2643      C2737   1.485       .  S
H2644      O2645   0.966       .  S
O2645     Zr2664   2.338       .  S
O2645     Zr2666   2.342       .  S
H2646      O2647   0.966       .  S
O2647     Zr3645   2.343   1_545  S
O2647     Zr3673   2.338   1_545  S
O2647     Zr2667   2.341       .  S
O2648     Zr2664   2.426       .  S
O2648      C2671   1.290       .  A
O2649     Zr2665   2.434       .  S
O2649      C2672   1.292       .  A
O2650     Zr2666   2.430       .  S
O2650      C2673   1.291       .  A
O2651     Zr2667   2.445       .  S
O2651      C2674   1.294       .  A
O2652     Zr2667   2.443       .  S
O2652      C2675   1.294       .  A
O2653     Zr2666   2.434       .  S
O2653      C2676   1.292       .  A
O2654     Zr2668   2.421       .  S
O2654      C2677   1.289       .  A
O2655     Zr3676   2.429   1_545  S
O2655      C2678   1.290       .  A
O2656     Zr2666   2.435       .  S
O2656      C2677   1.292       .  A
O2657     Zr2667   2.439       .  S
O2657      C2678   1.294       .  A
O2658     Zr2664   2.444       .  S
O2658      C2673   1.295       .  A
O2659     Zr2665   2.439       .  S
O2659      C2676   1.292       .  A
O2660     Zr3673   2.442   1_545  S
O2660      C2675   1.293       .  A
O2661     Zr3672   2.442   1_545  S
O2661      C2674   1.294       .  A
O2662     Zr2668   2.436       .  S
O2662      C2671   1.293       .  A
O2663     Zr2668   2.439       .  S
O2663      C2672   1.292       .  A
Zr2664     O3669   2.442       .  S
Zr2664     O3646   2.337       .  S
Zr2664     O2670   2.334       .  S
Zr2664     O3690   2.338       .  S
Zr2665     O3668   2.422       .  S
Zr2665     O3655   2.341       .  S
Zr2665     O3677   2.337       .  S
Zr2665     O2680   2.334       .  S
Zr2666     O2670   2.335       .  S
Zr2666     O2680   2.340       .  S
Zr2667     O2669   2.342       .  S
Zr2667     O2682   2.342       .  S
Zr2668     O3663   2.419       .  S
Zr2668     O3677   2.335       .  S
Zr2668     O2670   2.332       .  S
Zr2668     O3690   2.338       .  S
Zr2668     O2680   2.339       .  S
O2669     Zr3673   2.337   1_545  S
O2669     Zr3676   2.340   1_545  S
C2671      C3949   1.484       .  S
C2672      C3940   1.490       .  S
C2673      C2824   1.489       .  S
C2674      C2812   1.490       .  S
C2675      C2788   1.490       .  S
C2676      C2800   1.476       .  S
C2677      C2761   1.484       .  S
C2678      C2773   1.488       .  S
H2679      O2680   0.966       .  S
H2681      O2682   0.966       .  S
O2682     Zr3672   2.335   1_545  S
O2682     Zr3676   2.342   1_545  S
O2683     Zr2719   2.428       .  S
O2683      C2694   1.290   1_554  A
O2684     Zr2718   2.423   1_554  S
O2684      C2695   1.289       .  A
O2685      C2696   1.290       .  A
O2686     Zr2691   2.442   1_556  S
O2686      C2697   1.294       .  A
O2687     Zr2721   2.437       .  S
O2687      C2697   1.292       .  A
O2688     Zr2720   2.450       .  S
O2688      C2696   1.295       .  A
O2689     Zr2691   2.441       .  S
O2689      C2695   1.294       .  A
O2690     Zr2691   2.442   1_556  S
O2690      C2694   1.294       .  A
Zr2691     O2692   2.340   1_554  S
Zr2691     O2701   2.336   1_554  S
O2692     Zr2718   2.340       .  S
O2692     Zr2721   2.337       .  S
O2693     Zr2720   2.337       .  S
C2696      C2848   1.486       .  S
C2697      C2860   1.487       .  S
H2698      O2699   0.966       .  S
O2699     Zr2720   2.341       .  S
H2700      O2701   0.965       .  S
O2701     Zr2719   2.337   1_556  S
O2701     Zr2721   2.331       .  S
O2702     Zr2718   2.439       .  S
O2702      C2725   1.292       .  A
O2703     Zr2719   2.434       .  S
O2703      C2726   1.292       .  A
O2704     Zr2720   2.424       .  S
O2704      C2727   1.290       .  A
O2705     Zr2721   2.419       .  S
O2705      C2728   1.288       .  A
O2706     Zr2721   2.425       .  S
O2706      C2729   1.289       .  A
O2707     Zr2720   2.432       .  S
O2707      C2730   1.291       .  A
O2708      C2731   1.292       .  A
O2709     Zr2722   2.432       .  S
O2709      C2732   1.292       .  A
O2710     Zr2720   2.446       .  S
O2710      C2731   1.295       .  A
O2711     Zr2721   2.434       .  S
O2711      C2732   1.291       .  A
O2712      C2727   1.294       .  A
O2713      C2730   1.293       .  A
O2714     Zr2719   2.445   1_556  S
O2714      C2729   1.294       .  A
O2715     Zr2718   2.430       .  S
O2715      C2728   1.292       .  A
O2716     Zr2722   2.438       .  S
O2716      C2725   1.293       .  A
O2717     Zr2722   2.438   1_554  S
O2717      C2726   1.292       .  A
Zr2718     O2736   2.331       .  S
Zr2719     O2723   2.339   1_554  S
Zr2720     O2724   2.336       .  S
Zr2720     O2734   2.340       .  S
Zr2721     O2723   2.340       .  S
Zr2721     O2736   2.336       .  S
Zr2722     O2723   2.341       .  S
Zr2722     O2736   2.334       .  S
C2727      C2749   1.486       .  S
C2728      C2764   1.482       .  S
C2729      C2776   1.489       .  S
C2730      C2740   1.484       .  S
C2731      C2836   1.493       .  S
C2732      C2872   1.488       .  S
H2733      O2734   0.966       .  S
H2735      O2736   0.965       .  S
C2737      C2738   1.405       .  A
C2737      C2742   1.413       .  A
C2738      C2739   1.397       .  A
C2738      H2743   1.083       .  S
C2739      C2740   1.412       .  A
C2739      O2744   1.372       .  S
C2740      C2741   1.406       .  A
C2741      C2742   1.399       .  A
C2741      H2745   1.084       .  S
C2742      O2746   1.372       .  S
O2744      H2748   0.992       .  S
O2746      H2747   0.992       .  S
C2749      C2750   1.406       .  A
C2749      C2754   1.414       .  A
C2750      C2751   1.400       .  A
C2750      H2755   1.084       .  S
C2751      C2752   1.414       .  A
C2751      O2756   1.372       .  S
C2752      C2753   1.405       .  A
C2753      C2754   1.397       .  A
C2753      H2757   1.083       .  S
C2754      O2758   1.372       .  S
O2756      H2760   0.992       .  S
O2758      H2759   0.992       .  S
C2761      C2762   1.406       .  A
C2761      C2766   1.414       .  A
C2762      C2763   1.396       .  A
C2762      H2767   1.083       .  S
C2763      C2764   1.414       .  A
C2763      O2768   1.372       .  S
C2764      C2765   1.405       .  A
C2765      C2766   1.394       .  A
C2765      H2769   1.083       .  S
C2766      O2770   1.372       .  S
O2768      H2772   0.992       .  S
O2770      H2771   0.992       .  S
C2773      C2774   1.405       .  A
C2773      C2778   1.415       .  A
C2774      C2775   1.397       .  A
C2774      H2779   1.083       .  S
C2775      C2776   1.415       .  A
C2775      O2780   1.372       .  S
C2776      C2777   1.406       .  A
C2777      C2778   1.398       .  A
C2777      H2781   1.083       .  S
C2778      O2782   1.372       .  S
O2780      H2784   0.992       .  S
O2782      H2783   0.992       .  S
C2785      C2786   1.405       .  A
C2785      C2790   1.414       .  A
C2786      C2787   1.399       .  A
C2786      H2791   1.083       .  S
C2787      C2788   1.413       .  A
C2787      O2792   1.372       .  S
C2788      C2789   1.407       .  A
C2789      C2790   1.401       .  A
C2789      H2793   1.083       .  S
C2790      O2794   1.372       .  S
O2792      H2796   0.992       .  S
O2794      H2795   0.992       .  S
C2797      C2798   1.404       .  A
C2797      C2802   1.411       .  A
C2798      C2799   1.400       .  A
C2798      H2803   1.084       .  S
C2799      C2800   1.410       .  A
C2799      O2804   1.372       .  S
C2800      C2801   1.404       .  A
C2801      C2802   1.398       .  A
C2801      H2805   1.084       .  S
C2802      O2806   1.372       .  S
O2804      H2808   0.992       .  S
O2806      H2807   0.992       .  S
C2809      C2810   1.407       .  A
C2809      C2814   1.412       .  A
C2810      C2811   1.402       .  A
C2810      H2815   1.084       .  S
C2811      C2812   1.413       .  A
C2811      O2816   1.372       .  S
C2812      C2813   1.407       .  A
C2813      C2814   1.402       .  A
C2813      H2817   1.084       .  S
C2814      O2818   1.372       .  S
O2816      H2820   0.992       .  S
O2818      H2819   0.992       .  S
C2821      C2822   1.406       .  A
C2821      C2826   1.414       .  A
C2822      C2823   1.401       .  A
C2822      H2827   1.083       .  S
C2823      C2824   1.415       .  A
C2823      O2828   1.372       .  S
C2824      C2825   1.405       .  A
C2825      C2826   1.398       .  A
C2825      H2829   1.083       .  S
C2826      O2830   1.372       .  S
O2828      H2832   0.992       .  S
O2830      H2831   0.992       .  S
C2833      C2834   1.406       .  A
C2833      C2838   1.415       .  A
C2834      C2835   1.400       .  A
C2834      H2839   1.083       .  S
C2835      C2836   1.415       .  A
C2835      O2840   1.371       .  S
C2836      C2837   1.407       .  A
C2837      C2838   1.402       .  A
C2837      H2841   1.083       .  S
C2838      O2842   1.372       .  S
O2840      H2844   0.992       .  S
O2842      H2843   0.992       .  S
C2845      C2846   1.405       .  A
C2845      C2850   1.414       .  A
C2846      C2847   1.399       .  A
C2846      H2851   1.084       .  S
C2847      C2848   1.415       .  A
C2847      O2852   1.372       .  S
C2848      C2849   1.404       .  A
C2849      C2850   1.399       .  A
C2849      H2853   1.083       .  S
C2850      O2854   1.372       .  S
O2852      H2856   0.992       .  S
O2854      H2855   0.992       .  S
C2857      C2858   1.406       .  A
C2857      C2862   1.412       .  A
C2858      C2859   1.400       .  A
C2858      H2863   1.084       .  S
C2859      C2860   1.413       .  A
C2859      O2864   1.372       .  S
C2860      C2861   1.406       .  A
C2861      C2862   1.400       .  A
C2861      H2865   1.083       .  S
C2862      O2866   1.371       .  S
O2864      H2868   0.992       .  S
O2866      H2867   0.992       .  S
C2869      C2870   1.406       .  A
C2869      C2874   1.414       .  A
C2870      C2871   1.398       .  A
C2870      H2875   1.083       .  S
C2871      C2872   1.414       .  A
C2871      O2876   1.372       .  S
C2872      C2873   1.406       .  A
C2873      C2874   1.397       .  A
C2873      H2877   1.083       .  S
C2874      O2878   1.372       .  S
O2876      H2880   0.992       .  S
O2878      H2879   0.992       .  S
C2881      C2882   1.407       .  A
C2882      C2883   1.400       .  A
C2882      H2887   1.083       .  S
C2883      C2884   1.414       .  A
C2883      O2888   1.372       .  S
C2885      C2886   1.401       .  A
C2885      H2889   1.084       .  S
C2886      O2890   1.372       .  S
O2888      H2892   0.992       .  S
O2890      H2891   0.992       .  S
C2893      C2894   1.407       .  A
C2894      C2895   1.400       .  A
C2894      H2899   1.084       .  S
C2895      C2896   1.412       .  A
C2895      O2900   1.372       .  S
C2897      C2898   1.397       .  A
C2897      H2901   1.083       .  S
C2898      O2902   1.372       .  S
O2900      H2904   0.992       .  S
O2902      H2903   0.992       .  S
C2905      C2906   1.404       .  A
C2906      C2907   1.399       .  A
C2906      H2911   1.083       .  S
C2907      C2908   1.416       .  A
C2907      O2912   1.371       .  S
C2909      C2910   1.396       .  A
C2909      H2913   1.083       .  S
C2910      O2914   1.372       .  S
O2912      H2916   0.992       .  S
O2914      H2915   0.992       .  S
C2917      C2918   1.408       .  A
C2918      C2919   1.402       .  A
C2918      H2923   1.084       .  S
C2919      C2920   1.413       .  A
C2919      O2924   1.372       .  S
C2921      C2922   1.397       .  A
C2921      H2925   1.083       .  S
C2922      O2926   1.372       .  S
O2924      H2928   0.992       .  S
O2926      H2927   0.992       .  S
C2929      C3938   1.406       .  A
C2929      C2934   1.415   1_545  A
C2930      C3937   1.407       .  A
C2930      C2931   1.399       .  A
C2930      H2935   1.083       .  S
C2931      C3940   1.413       .  A
C2931      O2936   1.372       .  S
C2932      C3680   1.493       .  S
C2932      C3939   1.415       .  A
C2932      C2933   1.407   1_545  A
C2933      C2934   1.401       .  A
C2933      H2937   1.083       .  S
C2934      O2938   1.372       .  S
O2936      H2940   0.992       .  S
O2938      H2939   0.992       .  S
C2941      C3679   1.486       .  S
C2941      C3950   1.405       .  A
C2941      C2946   1.415       .  A
C2942      C3949   1.404       .  A
C2942      C2943   1.396       .  A
C2942      H2947   1.084       .  S
C2943      C3952   1.415       .  A
C2943      O2948   1.372       .  S
C2944      C3951   1.415   1_565  A
C2944      C2945   1.404       .  A
C2945      C2946   1.396       .  A
C2945      H2949   1.083       .  S
C2946      O2950   1.372       .  S
O2948      H2952   0.992       .  S
O2950      H2951   0.992       .  S
C2953      C2954   1.406       .  A
C2953      C3966   1.415       .  A
C2954      C2955   1.399       .  A
C2954      H2959   1.083       .  S
C2955      C2956   1.416       .  A
C2955      O2960   1.372       .  S
C2956      C3649   1.490       .  S
C2956      C3965   1.405       .  A
C2957      C3964   1.406       .  A
C2957      C2958   1.401       .  A
C2957      H2961   1.083       .  S
C2958      C3961   1.416       .  A
C2958      O2962   1.372       .  S
O2960      H2964   0.992       .  S
O2962      H2963   0.992       .  S
C2965      C3648   1.491       .  S
C2965      C3974   1.407   1_565  A
C2965      C2970   1.413       .  A
C2966      C3973   1.404       .  A
C2966      C2967   1.398       .  A
C2966      H2971   1.083       .  S
C2967      C3976   1.414       .  A
C2967      O2972   1.372       .  S
C2968      C3975   1.415   1_565  A
C2968      C2969   1.406       .  A
C2969      C2970   1.401       .  A
C2969      H2973   1.083       .  S
C2970      O2974   1.372       .  S
O2972      H2976   0.992       .  S
O2974      H2975   0.992       .  S
C2977      C2978   1.406       .  A
C2978      C2979   1.398       .  A
C2978      H2983   1.083       .  S
C2979      C2980   1.414       .  A
C2979      O2984   1.372       .  S
C2981      C2982   1.398       .  A
C2981      H2985   1.083       .  S
C2982      O2986   1.372       .  S
O2984      H2988   0.991       .  S
O2986      H2987   0.992       .  S
C2989      C2994   1.412       .  A
C2990      C2991   1.396       .  A
C2990      H2995   1.083       .  S
C2991      O2996   1.372       .  S
C2992      C2993   1.405       .  A
C2993      C2994   1.397       .  A
C2993      H2997   1.084       .  S
C2994      O2998   1.372       .  S
O2996      H3000   0.992   1_655  S
O2998      H2999   0.992       .  S
C3001      C3006   1.414       .  A
C3002      C3003   1.397       .  A
C3002      H3007   1.083       .  S
C3003      O3008   1.372       .  S
C3004      C3005   1.405       .  A
C3005      C3006   1.396       .  A
C3005      H3009   1.083       .  S
C3006      O3010   1.372       .  S
O3008      H3012   0.992       .  S
O3010      H3011   0.992       .  S
C3013      C3018   1.412       .  A
C3014      C3015   1.397       .  A
C3014      H3019   1.084       .  S
C3015      O3020   1.372       .  S
C3016      C3017   1.407       .  A
C3017      C3018   1.400       .  A
C3017      H3021   1.084       .  S
C3018      O3022   1.372       .  S
O3020      H3024   0.992       .  S
O3022      H3023   0.992       .  S
O3025     Zr3061   2.435       .  S
O3025      C3036   1.293       .  A
O3026     Zr3060   2.433       .  S
O3026      C3037   1.291       .  A
O3027     Zr3033   2.442       .  S
O3027      C3038   1.293       .  A
O3028      C3039   1.293       .  A
O3029     Zr3063   2.431       .  S
O3029      C3039   1.291   1_554  A
O3030     Zr3062   2.430       .  S
O3030      C3038   1.292       .  A
O3031     Zr3537   2.431       .  S
O3031      C3037   1.292       .  A
O3032     Zr3033   2.426   1_554  S
O3032      C3036   1.290       .  A
Zr3033     O3535   2.435       .  S
Zr3033     O3035   2.339   1_556  S
Zr3033     O3545   2.343       .  S
O3034     Zr3567   2.338       .  S
O3035     Zr3061   2.335       .  S
O3035     Zr3062   2.333   1_554  S
C3036      C3517   1.485       .  S
C3037      C3481   1.483       .  S
C3038      C3421   1.487   1_556  S
C3039      C3400   1.489       .  S
H3040      O3041   0.966       .  S
O3041     Zr3537   2.341       .  S
O3041     Zr3060   2.339       .  S
O3041     Zr3566   2.342       .  S
H3042      O3043   0.966       .  S
O3043     Zr3063   2.341       .  S
O3044      C3067   1.289       .  A
O3045      C3068   1.292       .  A
O3046     Zr3566   2.434       .  S
O3046      C3069   1.291       .  A
O3047     Zr3567   2.431       .  S
O3047      C3070   1.292       .  A
O3048     Zr3063   2.437       .  S
O3048      C3071   1.292       .  A
O3049     Zr3062   2.428   1_554  S
O3049      C3072   1.290       .  A
O3050     Zr3064   2.428       .  S
O3050      C3073   1.290       .  A
O3051      C3074   1.293       .  A
O3052      C3073   1.294       .  A
O3053      C3074   1.292       .  A
O3054     Zr3060   2.439       .  S
O3054      C3069   1.293       .  A
O3055     Zr3061   2.442       .  S
O3055      C3072   1.294       .  A
O3056      C3071   1.295       .  A
O3057      C3070   1.293       .  A
O3058     Zr3568   2.437       .  S
O3058      C3067   1.293       .  A
O3059     Zr3064   2.434   1_554  S
O3059      C3068   1.293       .  A
Zr3062     O3550   2.419       .  S
Zr3062     O3545   2.342       .  S
Zr3063     O3551   2.436   1_554  S
Zr3063     O3538   2.337   1_554  S
Zr3064     O3562   2.440       .  S
Zr3064     O3570   2.334       .  S
Zr3064     O3076   2.343   1_556  S
O3066     Zr3568   2.338       .  S
C3067      C3493   1.477       .  S
C3068      C3508   1.486       .  S
C3069      C3448   1.485       .  S
C3070      C3433   1.487       .  S
C3071      C3472   1.490       .  S
C3072      C3457   1.485       .  S
C3073      C3409   1.488       .  S
C3074      C3385   1.491       .  S
H3075      O3076   0.966       .  S
H3077      O3078   0.965       .  S
O3079     Zr3115   2.432       .  S
O3079      C3090   1.292       .  A
O3080     Zr3114   2.431       .  S
O3080      C3091   1.291       .  A
O3081     Zr3087   2.428       .  S
O3081      C3092   1.290       .  A
O3082      C3093   1.296       .  A
O3083     Zr3117   2.426       .  S
O3083      C3093   1.290       .  A
O3084     Zr3116   2.443       .  S
O3084      C3092   1.294       .  A
O3085     Zr3087   2.435       .  S
O3085      C3091   1.292       .  A
O3086     Zr3087   2.429       .  S
O3086      C3090   1.290       .  A
Zr3087     O3089   2.338       .  S
Zr3087     O3095   2.340       .  S
O3088     Zr3117   2.334       .  S
O3089     Zr3115   2.337       .  S
O3089     Zr3116   2.338       .  S
C3090      C3520   1.486       .  S
C3091      C3484   1.484       .  S
C3092      C3313   1.489       .  S
C3093      C3289   1.489       .  S
H3094      O3095   0.966       .  S
O3095     Zr3114   2.337       .  S
O3095     Zr3116   2.342       .  S
H3096      O3097   0.966       .  S
O3097     Zr3117   2.345       .  S
O3098     Zr3114   2.422       .  S
O3098      C3121   1.289       .  A
O3099     Zr3115   2.431       .  S
O3099      C3122   1.291       .  A
O3100     Zr3116   2.435       .  S
O3100      C3123   1.292       .  A
O3101     Zr3117   2.439       .  S
O3101      C3124   1.293       .  A
O3102     Zr3117   2.427       .  S
O3102      C3125   1.290       .  A
O3103     Zr3116   2.431       .  S
O3103      C3126   1.291       .  A
O3104     Zr3118   2.437       .  S
O3104      C3127   1.292       .  A
O3105      C3128   1.293       .  A
O3106     Zr3116   2.445       .  S
O3106      C3127   1.294       .  A
O3107     Zr3117   2.440       .  S
O3107      C3128   1.292       .  A
O3108     Zr3114   2.437       .  S
O3108      C3123   1.292       .  A
O3109     Zr3115   2.446       .  S
O3109      C3126   1.294       .  A
O3110      C3125   1.295       .  A
O3111      C3124   1.292       .  A
O3112     Zr3118   2.438       .  S
O3112      C3121   1.293       .  A
O3113     Zr3118   2.435       .  S
O3113      C3122   1.293       .  A
Zr3114     O3120   2.339       .  S
Zr3115     O3130   2.343       .  S
Zr3116     O3120   2.337       .  S
Zr3116     O3130   2.342       .  S
Zr3117     O3119   2.337       .  S
Zr3117     O3132   2.334       .  S
Zr3118     O3120   2.341       .  S
Zr3118     O3130   2.343       .  S
C3121      C3496   1.478       .  S
C3122      C3505   1.486       .  S
C3123      C3361   1.484       .  S
C3124      C3373   1.486       .  S
C3125      C3337   1.489       .  S
C3126      C3349   1.484       .  S
C3127      C3325   1.488       .  S
C3128      C3301   1.489       .  S
H3129      O3130   0.966       .  S
H3131      O3132   0.966       .  S
O3133     Zr3169   2.426       .  S
O3133      C3144   1.290       .  A
O3134     Zr3168   2.430       .  S
O3134      C3145   1.291       .  A
O3135     Zr3141   2.430   1_565  S
O3135      C3146   1.291       .  A
O3136      C3147   1.288       .  A
O3137     Zr3171   2.438       .  S
O3137      C3147   1.293       .  A
O3138     Zr3170   2.439       .  S
O3138      C3146   1.293       .  A
O3139     Zr3141   2.440       .  S
O3139      C3145   1.293       .  A
O3140     Zr3141   2.444       .  S
O3140      C3144   1.294       .  A
Zr3141     O3143   2.336   1_545  S
Zr3141     O3149   2.341   1_545  S
O3142     Zr3171   2.338       .  S
O3143     Zr3169   2.333   1_565  S
O3143     Zr3170   2.336       .  S
C3146      C3256   1.484       .  S
C3147      C3241   1.485       .  S
H3148      O3149   0.966       .  S
O3149     Zr3168   2.338   1_565  S
O3149     Zr3170   2.342       .  S
H3150      O3151   0.966       .  S
O3151     Zr3171   2.333       .  S
O3152     Zr3168   2.432       .  S
O3152      C3175   1.291       .  A
O3153     Zr3169   2.433       .  S
O3153      C3176   1.292   1_545  A
O3154     Zr3170   2.432       .  S
O3154      C3177   1.291       .  A
O3155     Zr3171   2.433       .  S
O3155      C3178   1.291       .  A
O3156     Zr3171   2.449       .  S
O3156      C3179   1.295       .  A
O3157     Zr3170   2.439       .  S
O3157      C3180   1.293       .  A
O3158     Zr3172   2.427   1_565  S
O3158      C3181   1.290       .  A
O3159      C3182   1.291       .  A
O3160     Zr3170   2.446       .  S
O3160      C3181   1.295       .  A
O3161     Zr3171   2.423       .  S
O3161      C3182   1.291       .  A
O3162     Zr3168   2.443   1_565  S
O3162      C3177   1.294       .  A
O3163     Zr3169   2.435   1_565  S
O3163      C3180   1.291       .  A
O3164      C3179   1.291       .  A
O3165      C3178   1.292       .  A
O3166     Zr3172   2.444       .  S
O3166      C3175   1.294       .  A
O3167     Zr3172   2.443   1_565  S
O3167      C3176   1.293       .  A
Zr3168     O3174   2.336   1_545  S
Zr3169     O3184   2.333   1_545  S
Zr3170     O3174   2.340       .  S
Zr3170     O3184   2.340       .  S
Zr3171     O3173   2.336       .  S
Zr3171     O3186   2.344       .  S
Zr3172     O3174   2.340   1_545  S
Zr3172     O3184   2.343   1_545  S
C3177      C3328   1.486       .  S
C3178      C3316   1.487       .  S
C3179      C3292   1.490       .  S
C3180      C3304   1.489       .  S
C3181      C3265   1.485       .  S
C3182      C3277   1.483       .  S
H3183      O3184   0.966       .  S
H3185      O3186   0.966       .  S
O3187     Zr3223   2.444       .  S
O3187      C3198   1.293       .  A
O3188     Zr3222   2.435       .  S
O3188      C3199   1.292       .  A
O3189     Zr3699   2.434       .  S
O3189      C3200   1.292       .  A
O3190     Zr3195   2.435       .  S
O3190      C3201   1.292       .  A
O3191     Zr3225   2.435       .  S
O3191      C3201   1.292       .  A
O3192     Zr3224   2.442       .  S
O3192      C3200   1.293       .  A
O3193     Zr3195   2.435       .  S
O3193      C3199   1.293       .  A
O3194     Zr3195   2.439       .  S
O3194      C3198   1.293       .  A
Zr3195     O3693   2.437       .  S
Zr3195     O3196   2.340       .  S
Zr3195     O3701   2.333       .  S
Zr3195     O3205   2.339       .  S
Zr3195     O3707   2.343       .  S
O3196     Zr3222   2.336       .  S
O3196     Zr3225   2.334       .  S
O3197     Zr3699   2.339       .  S
O3197     Zr3727   2.337       .  S
O3197     Zr3224   2.337       .  S
C3198      C3928   1.490       .  S
C3199      C3916   1.485       .  S
C3200      C3352   1.484       .  S
C3201      C3364   1.484       .  S
H3202      O3203   0.966       .  S
O3203     Zr3699   2.342       .  S
O3203     Zr3726   2.343   1_554  S
O3203     Zr3224   2.339       .  S
H3204      O3205   0.966       .  S
O3205     Zr3223   2.344       .  S
O3205     Zr3225   2.347       .  S
O3206     Zr3222   2.442       .  S
O3206      C3229   1.293       .  A
O3207     Zr3223   2.440       .  S
O3207      C3230   1.293       .  A
O3208     Zr3224   2.428       .  S
O3208      C3231   1.291       .  A
O3209     Zr3225   2.436       .  S
O3209      C3232   1.292       .  A
O3210     Zr3225   2.422       .  S
O3210      C3233   1.289       .  A
O3211     Zr3224   2.424       .  S
O3211      C3234   1.289       .  A
O3212     Zr3730   2.437   1_554  S
O3212      C3235   1.292       .  A
O3213     Zr3226   2.432       .  S
O3213      C3236   1.292       .  A
O3214     Zr3224   2.442       .  S
O3214      C3235   1.294       .  A
O3215     Zr3225   2.439       .  S
O3215      C3236   1.292       .  A
O3216     Zr3726   2.438   1_554  S
O3216      C3231   1.293       .  A
O3217     Zr3727   2.433       .  S
O3217      C3234   1.292       .  A
O3218     Zr3223   2.434       .  S
O3218      C3233   1.293       .  A
O3219     Zr3222   2.437       .  S
O3219      C3232   1.293       .  A
O3220     Zr3226   2.444       .  S
O3220      C3229   1.294       .  A
O3221     Zr3226   2.434       .  S
O3221      C3230   1.292       .  A
Zr3222     O3720   2.430       .  S
Zr3222     O3707   2.346       .  S
Zr3222     O3732   2.337       .  S
Zr3222     O3240   2.337       .  S
Zr3223     O3721   2.444       .  S
Zr3223     O3701   2.331       .  S
Zr3223     O3227   2.340       .  S
Zr3223     O3742   2.342       .  S
Zr3224     O3228   2.338       .  S
Zr3224     O3238   2.338       .  S
Zr3225     O3227   2.335       .  S
Zr3225     O3240   2.336       .  S
Zr3226     O3716   2.432       .  S
Zr3226     O3227   2.335       .  S
Zr3226     O3732   2.336       .  S
Zr3226     O3240   2.337       .  S
Zr3226     O3742   2.341       .  S
O3228     Zr3726   2.337   1_554  S
O3228     Zr3730   2.337   1_554  S
C3229      C3892   1.490       .  S
C3230      C3901   1.483       .  S
C3231      C3253   1.485       .  S
C3232      C3268   1.484       .  S
C3233      C3280   1.483       .  S
C3234      C3244   1.484       .  S
C3235      C3340   1.489       .  S
C3236      C3376   1.484       .  S
H3237      O3238   0.965       .  S
O3238     Zr3727   2.337       .  S
O3238     Zr3730   2.339   1_554  S
H3239      O3240   0.966       .  S
C3241      C3242   1.405       .  A
C3241      C3246   1.415       .  A
C3242      C3243   1.397       .  A
C3242      H3247   1.083       .  S
C3243      C3244   1.414       .  A
C3243      O3248   1.372       .  S
C3244      C3245   1.405       .  A
C3245      C3246   1.396       .  A
C3245      H3249   1.083       .  S
C3246      O3250   1.372       .  S
O3248      H3252   0.992       .  S
O3250      H3251   0.992       .  S
C3253      C3254   1.406       .  A
C3253      C3258   1.413       .  A
C3254      C3255   1.398       .  A
C3254      H3259   1.083       .  S
C3255      C3256   1.413       .  A
C3255      O3260   1.372       .  S
C3256      C3257   1.405       .  A
C3257      C3258   1.398       .  A
C3257      H3261   1.084       .  S
C3258      O3262   1.372       .  S
O3260      H3264   0.992       .  S
O3262      H3263   0.992       .  S
C3265      C3266   1.406       .  A
C3265      C3270   1.414       .  A
C3266      C3267   1.399       .  A
C3266      H3271   1.083       .  S
C3267      C3268   1.412       .  A
C3267      O3272   1.372       .  S
C3268      C3269   1.405       .  A
C3269      C3270   1.398       .  A
C3269      H3273   1.084       .  S
C3270      O3274   1.372       .  S
O3272      H3276   0.992       .  S
O3274      H3275   0.992       .  S
C3277      C3278   1.406       .  A
C3277      C3282   1.412       .  A
C3278      C3279   1.395       .  A
C3278      H3283   1.083       .  S
C3279      C3280   1.413       .  A
C3279      O3284   1.372       .  S
C3280      C3281   1.406       .  A
C3281      C3282   1.396       .  A
C3281      H3285   1.083       .  S
C3282      O3286   1.372       .  S
O3284      H3288   0.992       .  S
O3286      H3287   0.992       .  S
C3289      C3290   1.404       .  A
C3289      C3294   1.415       .  A
C3290      C3291   1.399       .  A
C3290      H3295   1.083       .  S
C3291      C3292   1.415       .  A
C3291      O3296   1.372       .  S
C3292      C3293   1.406       .  A
C3293      C3294   1.402       .  A
C3293      H3297   1.084       .  S
C3294      O3298   1.372       .  S
O3296      H3300   0.992       .  S
O3298      H3299   0.992       .  S
C3301      C3302   1.406       .  A
C3301      C3306   1.413       .  A
C3302      C3303   1.399       .  A
C3302      H3307   1.083       .  S
C3303      C3304   1.414       .  A
C3303      O3308   1.372       .  S
C3304      C3305   1.407       .  A
C3305      C3306   1.402       .  A
C3305      H3309   1.083       .  S
C3306      O3310   1.371       .  S
O3308      H3312   0.992       .  S
O3310      H3311   0.992       .  S
C3313      C3314   1.406       .  A
C3313      C3318   1.414       .  A
C3314      C3315   1.398       .  A
C3314      H3319   1.083       .  S
C3315      C3316   1.413       .  A
C3315      O3320   1.372       .  S
C3316      C3317   1.406       .  A
C3317      C3318   1.398       .  A
C3317      H3321   1.083       .  S
C3318      O3322   1.372       .  S
O3320      H3324   0.992       .  S
O3322      H3323   0.992       .  S
C3325      C3326   1.406       .  A
C3325      C3330   1.413       .  A
C3326      C3327   1.401       .  A
C3326      H3331   1.083       .  S
C3327      C3328   1.413       .  A
C3327      O3332   1.372       .  S
C3328      C3329   1.405       .  A
C3329      C3330   1.400       .  A
C3329      H3333   1.083       .  S
C3330      O3334   1.372       .  S
O3332      H3336   0.992       .  S
O3334      H3335   0.992       .  S
C3337      C3338   1.405       .  A
C3337      C3342   1.415       .  A
C3338      C3339   1.400       .  A
C3338      H3343   1.083       .  S
C3339      C3340   1.414       .  A
C3339      O3344   1.372       .  S
C3340      C3341   1.405       .  A
C3341      C3342   1.400       .  A
C3341      H3345   1.084       .  S
C3342      O3346   1.372       .  S
O3344      H3348   0.992       .  S
O3346      H3347   0.992       .  S
C3349      C3350   1.405       .  A
C3349      C3354   1.413       .  A
C3350      C3351   1.399       .  A
C3350      H3355   1.084       .  S
C3351      C3352   1.413       .  A
C3351      O3356   1.372       .  S
C3352      C3353   1.405       .  A
C3353      C3354   1.399       .  A
C3353      H3357   1.084       .  S
C3354      O3358   1.372       .  S
O3356      H3360   0.992       .  S
O3358      H3359   0.992       .  S
C3361      C3362   1.406       .  A
C3361      C3366   1.412       .  A
C3362      C3363   1.399       .  A
C3362      H3367   1.084       .  S
C3363      C3364   1.412       .  A
C3363      O3368   1.372       .  S
C3364      C3365   1.405       .  A
C3365      C3366   1.398       .  A
C3365      H3369   1.084       .  S
C3366      O3370   1.372       .  S
O3368      H3372   0.992       .  S
O3370      H3371   0.992       .  S
C3373      C3374   1.407       .  A
C3373      C3378   1.412       .  A
C3374      C3375   1.401       .  A
C3374      H3379   1.083       .  S
C3375      C3376   1.411       .  A
C3375      O3380   1.372       .  S
C3376      C3377   1.405       .  A
C3377      C3378   1.398       .  A
C3377      H3381   1.084       .  S
C3378      O3382   1.372       .  S
O3380      H3384   0.992       .  S
O3382      H3383   0.992       .  S
C3385      C3386   1.407   1_554  A
C3385      C3894   1.413       .  A
C3386      C3387   1.400       .  A
C3386      H3391   1.083       .  S
C3387      C3388   1.414   1_556  A
C3387      O3392   1.372       .  S
C3388      C3733   1.491   1_554  S
C3388      C3893   1.406       .  A
C3389      C3892   1.407       .  A
C3389      C3390   1.403       .  A
C3389      H3393   1.084       .  S
C3390      C3889   1.414       .  A
C3390      O3394   1.372       .  S
O3392      H3396   0.992       .  S
O3394      H3395   0.992       .  S
C3397      C3734   1.490       .  S
C3397      C3398   1.407   1_556  A
C3397      C3906   1.414       .  A
C3398      C3399   1.399       .  A
C3398      H3403   1.083       .  S
C3399      C3400   1.415   1_554  A
C3399      O3404   1.372       .  S
C3400      C3905   1.406       .  A
C3401      C3904   1.404       .  A
C3401      C3402   1.400       .  A
C3401      H3405   1.084       .  S
C3402      C3901   1.412       .  A
C3402      O3406   1.372       .  S
O3404      H3408   0.992   1_554  S
O3406      H3407   0.992       .  S
C3409      C3410   1.405       .  A
C3409      C3918   1.415   1_556  A
C3410      C3411   1.399       .  A
C3410      H3415   1.083       .  S
C3411      C3412   1.414       .  A
C3411      O3416   1.371       .  S
C3412      C3703   1.487       .  S
C3412      C3917   1.405   1_556  A
C3413      C3916   1.405       .  A
C3413      C3414   1.398       .  A
C3413      H3417   1.084       .  S
C3414      C3913   1.413       .  A
C3414      O3418   1.372       .  S
O3416      H3420   0.992       .  S
O3418      H3419   0.992       .  S
C3421      C3422   1.407       .  A
C3421      C3930   1.412   1_554  A
C3422      C3423   1.399       .  A
C3422      H3427   1.083       .  S
C3423      C3424   1.413       .  A
C3423      O3428   1.372       .  S
C3424      C3702   1.487       .  S
C3424      C3929   1.407   1_554  A
C3425      C3928   1.407       .  A
C3425      C3426   1.401       .  A
C3425      H3429   1.083       .  S
C3426      C3925   1.414       .  A
C3426      O3430   1.372       .  S
O3428      H3432   0.992   1_554  S
O3430      H3431   0.992       .  S
C3433      C3438   1.412       .  A
C3434      C3435   1.399       .  A
C3434      H3439   1.084       .  S
C3435      O3440   1.372       .  S
C3436      C3437   1.406       .  A
C3437      C3438   1.397       .  A
C3437      H3441   1.083       .  S
C3438      O3442   1.371       .  S
O3440      H3444   0.992       .  S
O3442      H3443   0.992       .  S
C3445      C3450   1.412       .  A
C3446      C3447   1.400       .  A
C3446      H3451   1.084       .  S
C3447      O3452   1.372       .  S
C3448      C3449   1.406       .  A
C3449      C3450   1.398       .  A
C3449      H3453   1.083       .  S
C3450      O3454   1.372       .  S
O3452      H3456   0.992       .  S
O3454      H3455   0.992       .  S
C3457      C3458   1.405       .  A
C3458      C3459   1.398       .  A
C3458      H3463   1.083       .  S
C3459      C3460   1.413       .  A
C3459      O3464   1.372       .  S
C3461      C3462   1.398       .  A
C3461      H3465   1.083       .  S
C3462      O3466   1.372       .  S
O3464      H3468   0.992       .  S
O3466      H3467   0.992       .  S
C3469      C3474   1.413       .  A
C3470      C3471   1.398       .  A
C3470      H3475   1.083       .  S
C3471      O3476   1.372       .  S
C3472      C3473   1.406       .  A
C3473      C3474   1.401       .  A
C3473      H3477   1.083       .  S
C3474      O3478   1.371       .  S
O3476      H3480   0.992       .  S
O3478      H3479   0.992       .  S
C3481      C3482   1.406       .  A
C3482      C3483   1.399       .  A
C3482      H3487   1.084       .  S
C3483      C3484   1.412       .  A
C3483      O3488   1.372       .  S
C3485      C3486   1.395       .  A
C3485      H3489   1.084       .  S
C3486      O3490   1.372       .  S
O3488      H3492   0.992       .  S
O3490      H3491   0.992       .  S
C3493      C3498   1.412       .  A
C3494      C3495   1.395       .  A
C3494      H3499   1.083       .  S
C3495      O3500   1.372       .  S
C3496      C3497   1.403       .  A
C3497      C3498   1.396       .  A
C3497      H3501   1.084       .  S
C3498      O3502   1.372       .  S
O3500      H3504   0.992       .  S
O3502      H3503   0.992       .  S
C3505      C3510   1.413       .  A
C3506      C3507   1.398       .  A
C3506      H3511   1.083       .  S
C3507      O3512   1.372       .  S
C3508      C3509   1.406       .  A
C3509      C3510   1.398       .  A
C3509      H3513   1.083       .  S
C3510      O3514   1.372       .  S
O3512      H3516   0.992       .  S
O3514      H3515   0.992       .  S
C3517      C3522   1.414       .  A
C3518      C3519   1.399       .  A
C3518      H3523   1.084       .  S
C3519      O3524   1.372       .  S
C3520      C3521   1.406       .  A
C3521      C3522   1.397       .  A
C3521      H3525   1.083       .  S
C3522      O3526   1.372       .  S
O3524      H3528   0.992       .  S
O3526      H3527   0.992       .  S
O3529     Zr3565   2.424       .  S
O3529      C3540   1.290       .  A
O3530     Zr3564   2.425       .  S
O3530      C3541   1.290       .  A
O3531     Zr3537   2.435       .  S
O3531      C3542   1.292       .  A
O3532      C3543   1.295       .  A
O3533     Zr3567   2.425       .  S
O3533      C3543   1.289       .  A
O3534     Zr3566   2.446       .  S
O3534      C3542   1.295       .  A
O3535      C3541   1.292       .  A
O3536     Zr3537   2.431       .  S
O3536      C3540   1.291       .  A
Zr3537     O3539   2.336       .  S
O3539     Zr3565   2.332       .  S
O3539     Zr3566   2.338       .  S
C3540      C4021   1.484       .  S
C3541      C3985   1.484       .  S
C3542      C3925   1.490       .  S
C3543      C3904   1.484       .  S
H3544      O3545   0.966       .  S
O3545     Zr3564   2.336       .  S
H3546      O3547   0.966       .  S
O3547     Zr3567   2.340       .  S
O3548      C3571   1.289       .  A
O3549      C3572   1.291       .  A
O3550      C3573   1.288       .  A
O3551      C3574   1.293       .  A
O3552     Zr3567   2.436       .  S
O3552      C3575   1.291       .  A
O3553     Zr3566   2.429       .  S
O3553      C3576   1.290       .  A
O3554     Zr3568   2.433       .  S
O3554      C3577   1.291       .  A
O3555      C3578   1.293       .  A
O3556      C3577   1.293       .  A
O3557      C3578   1.294       .  A
O3558     Zr3564   2.446       .  S
O3558      C3573   1.294       .  A
O3559     Zr3565   2.452       .  S
O3559      C3576   1.295       .  A
O3560      C3575   1.294       .  A
O3561      C3574   1.292       .  A
O3562      C3571   1.293       .  A
O3563     Zr3568   2.438       .  S
O3563      C3572   1.293       .  A
Zr3568     O3580   2.339       .  S
C3571      C3997   1.483       .  S
C3572      C4012   1.486       .  S
C3573      C3952   1.486       .  S
C3574      C3937   1.491       .  S
C3575      C3976   1.490       .  S
C3576      C3961   1.494       .  S
C3577      C3913   1.486       .  S
C3578      C3889   1.490       .  S
H3579      O3580   0.966       .  S
H3581      O3582   0.966       .  S
O3583     Zr3619   2.432       .  S
O3583      C3594   1.292       .  A
O3584     Zr3618   2.430       .  S
O3584      C3595   1.290       .  A
O3585     Zr3591   2.438       .  S
O3585      C3596   1.292       .  A
O3586      C3597   1.293       .  A
O3587     Zr3621   2.424       .  S
O3587      C3597   1.289       .  A
O3588     Zr3620   2.445       .  S
O3588      C3596   1.295       .  A
O3589     Zr3591   2.431       .  S
O3589      C3595   1.292       .  A
O3590     Zr3591   2.428       .  S
O3590      C3594   1.290       .  A
Zr3591     O3593   2.339       .  S
Zr3591     O3599   2.341       .  S
O3592     Zr3621   2.333       .  S
O3593     Zr3619   2.335       .  S
O3593     Zr3620   2.337       .  S
C3594      C4024   1.484       .  S
C3595      C3988   1.485       .  S
C3596      C3817   1.493       .  S
C3597      C3793   1.486       .  S
H3598      O3599   0.966       .  S
O3599     Zr3618   2.336       .  S
O3599     Zr3620   2.342       .  S
H3600      O3601   0.966       .  S
O3601     Zr3621   2.339       .  S
O3602     Zr3618   2.423       .  S
O3602      C3625   1.289       .  A
O3603     Zr3619   2.436       .  S
O3603      C3626   1.292       .  A
O3604     Zr3620   2.442       .  S
O3604      C3627   1.294       .  A
O3605     Zr3621   2.439       .  S
O3605      C3628   1.293       .  A
O3606     Zr3621   2.432       .  S
O3606      C3629   1.291       .  A
O3607     Zr3620   2.438       .  S
O3607      C3630   1.292       .  A
O3608     Zr3622   2.431       .  S
O3608      C3631   1.291       .  A
O3609      C3632   1.293       .  A
O3610     Zr3620   2.446       .  S
O3610      C3631   1.295       .  A
O3611     Zr3621   2.427       .  S
O3611      C3632   1.290       .  A
O3612     Zr3618   2.440       .  S
O3612      C3627   1.293       .  A
O3613     Zr3619   2.449       .  S
O3613      C3630   1.295       .  A
O3614      C3629   1.295       .  A
O3615      C3628   1.291       .  A
O3616     Zr3622   2.441       .  S
O3616      C3625   1.294       .  A
O3617     Zr3622   2.433       .  S
O3617      C3626   1.292       .  A
Zr3618     O3624   2.332       .  S
Zr3619     O3634   2.342       .  S
Zr3620     O3624   2.334       .  S
Zr3620     O3634   2.344       .  S
Zr3621     O3623   2.336       .  S
Zr3621     O3636   2.338       .  S
Zr3622     O3624   2.336       .  S
Zr3622     O3634   2.348       .  S
C3625      C4000   1.484       .  S
C3626      C4009   1.486       .  S
C3627      C3865   1.492       .  S
C3628      C3877   1.487       .  S
C3629      C3841   1.491       .  S
C3630      C3853   1.492       .  S
C3631      C3829   1.489       .  S
C3632      C3805   1.487       .  S
H3633      O3634   0.966       .  S
H3635      O3636   0.966       .  S
O3637     Zr3673   2.445       .  S
O3637      C3648   1.294       .  A
O3638     Zr3672   2.424   1_545  S
O3638      C3649   1.289       .  A
O3639     Zr3645   2.433       .  S
O3639      C3650   1.291       .  A
O3640      C3651   1.291       .  A
O3641     Zr3675   2.438       .  S
O3641      C3651   1.293       .  A
O3642     Zr3674   2.436       .  S
O3642      C3650   1.292       .  A
O3643     Zr3645   2.447   1_545  S
O3643      C3649   1.295       .  A
O3644     Zr3645   2.442       .  S
O3644      C3648   1.294       .  A
Zr3645     O3647   2.338       .  S
Zr3645     O3653   2.339       .  S
O3646     Zr3675   2.338       .  S
O3647     Zr3673   2.341       .  S
O3647     Zr3674   2.337       .  S
C3650      C3760   1.478       .  S
C3651      C3745   1.486       .  S
H3652      O3653   0.966       .  S
O3653     Zr3672   2.339       .  S
O3653     Zr3674   2.342       .  S
H3654      O3655   0.965       .  S
O3655     Zr3675   2.336       .  S
O3656     Zr3672   2.425       .  S
O3656      C3679   1.289       .  A
O3657     Zr3673   2.446   1_545  S
O3657      C3680   1.295       .  A
O3658     Zr3674   2.442       .  S
O3658      C3681   1.293       .  A
O3659     Zr3675   2.441       .  S
O3659      C3682   1.293       .  A
O3660     Zr3675   2.446       .  S
O3660      C3683   1.295       .  A
O3661     Zr3674   2.442       .  S
O3661      C3684   1.294       .  A
O3662     Zr3676   2.438       .  S
O3662      C3685   1.292       .  A
O3663      C3686   1.288       .  A
O3664     Zr3674   2.434       .  S
O3664      C3685   1.292       .  A
O3665     Zr3675   2.432       .  S
O3665      C3686   1.292       .  A
O3666     Zr3672   2.441       .  S
O3666      C3681   1.294       .  A
O3667     Zr3673   2.431       .  S
O3667      C3684   1.291       .  A
O3668      C3683   1.289       .  A
O3669      C3682   1.294       .  A
O3670     Zr3676   2.435       .  S
O3670      C3679   1.292       .  A
O3671     Zr3676   2.437       .  S
O3671      C3680   1.292   1_565  A
Zr3672     O3678   2.336       .  S
Zr3673     O3688   2.344       .  S
Zr3674     O3678   2.337       .  S
Zr3674     O3688   2.343       .  S
Zr3675     O3677   2.340       .  S
Zr3675     O3690   2.340       .  S
Zr3676     O3678   2.334       .  S
Zr3676     O3688   2.339       .  S
C3681      C3832   1.491       .  S
C3682      C3820   1.493       .  S
C3683      C3796   1.487       .  S
C3684      C3808   1.488       .  S
C3685      C3769   1.482       .  S
C3686      C3781   1.481       .  S
H3687      O3688   0.966       .  S
H3689      O3690   0.966       .  S
O3691     Zr3727   2.437       .  S
O3691      C3702   1.292       .  A
O3692     Zr3726   2.429       .  S
O3692      C3703   1.291       .  A
O3693      C3704   1.292       .  A
O3694     Zr3699   2.440   1_556  S
O3694      C3705   1.293       .  A
O3695     Zr3729   2.442       .  S
O3695      C3705   1.293       .  A
O3696     Zr3728   2.447       .  S
O3696      C3704   1.295       .  A
O3697     Zr3699   2.439   1_556  S
O3697      C3703   1.294       .  A
O3698     Zr3699   2.436       .  S
O3698      C3702   1.293       .  A
Zr3699     O3700   2.335   1_554  S
Zr3699     O3709   2.337   1_554  S
O3700     Zr3726   2.336       .  S
O3700     Zr3729   2.331       .  S
O3701     Zr3728   2.335       .  S
C3704      C3856   1.490       .  S
C3705      C3868   1.492       .  S
H3706      O3707   0.966       .  S
O3707     Zr3728   2.342       .  S
H3708      O3709   0.966       .  S
O3709     Zr3727   2.341   1_556  S
O3709     Zr3729   2.336       .  S
O3710     Zr3726   2.435       .  S
O3710      C3733   1.292       .  A
O3711     Zr3727   2.441   1_556  S
O3711      C3734   1.294       .  A
O3712     Zr3728   2.428       .  S
O3712      C3735   1.291       .  A
O3713     Zr3729   2.426       .  S
O3713      C3736   1.290       .  A
O3714     Zr3729   2.419       .  S
O3714      C3737   1.288       .  A
O3715     Zr3728   2.425       .  S
O3715      C3738   1.290       .  A
O3716      C3739   1.291       .  A
O3717     Zr3730   2.442       .  S
O3717      C3740   1.294       .  A
O3718     Zr3728   2.448       .  S
O3718      C3739   1.295       .  A
O3719     Zr3729   2.431       .  S
O3719      C3740   1.291       .  A
O3720      C3735   1.291       .  A
O3721      C3738   1.294       .  A
O3722     Zr3727   2.432   1_556  S
O3722      C3737   1.292       .  A
O3723     Zr3726   2.443       .  S
O3723      C3736   1.294       .  A
O3724     Zr3730   2.445   1_554  S
O3724      C3733   1.294   1_554  A
O3725     Zr3730   2.434   1_554  S
O3725      C3734   1.291   1_554  A
Zr3726     O3744   2.338       .  S
Zr3727     O3731   2.336   1_554  S
Zr3728     O3732   2.336       .  S
Zr3728     O3742   2.340       .  S
Zr3729     O3731   2.337       .  S
Zr3729     O3744   2.339       .  S
Zr3730     O3731   2.339       .  S
Zr3730     O3744   2.338       .  S
C3735      C3757   1.475       .  S
C3736      C3772   1.483       .  S
C3737      C3784   1.482       .  S
C3738      C3748   1.486       .  S
C3739      C3844   1.491       .  S
C3740      C3880   1.487       .  S
H3741      O3742   0.966       .  S
H3743      O3744   0.966       .  S
C3745      C3746   1.405       .  A
C3745      C3750   1.414       .  A
C3746      C3747   1.399       .  A
C3746      H3751   1.084       .  S
C3747      C3748   1.415       .  A
C3747      O3752   1.372       .  S
C3748      C3749   1.405       .  A
C3749      C3750   1.397       .  A
C3749      H3753   1.083       .  S
C3750      O3754   1.372       .  S
O3752      H3756   0.992       .  S
O3754      H3755   0.992       .  S
C3757      C3758   1.403       .  A
C3757      C3762   1.410       .  A
C3758      C3759   1.397       .  A
C3758      H3763   1.084       .  S
C3759      C3760   1.412       .  A
C3759      O3764   1.372       .  S
C3760      C3761   1.405       .  A
C3761      C3762   1.398       .  A
C3761      H3765   1.084       .  S
C3762      O3766   1.373       .  S
O3764      H3768   0.992       .  S
O3766      H3767   0.992       .  S
C3769      C3770   1.404       .  A
C3769      C3774   1.412       .  A
C3770      C3771   1.398       .  A
C3770      H3775   1.084       .  S
C3771      C3772   1.412       .  A
C3771      O3776   1.371       .  S
C3772      C3773   1.404       .  A
C3773      C3774   1.399       .  A
C3773      H3777   1.082       .  S
C3774      O3778   1.372       .  S
O3776      H3780   0.992       .  S
O3778      H3779   0.992       .  S
C3781      C3782   1.404       .  A
C3781      C3786   1.414       .  A
C3782      C3783   1.394       .  A
C3782      H3787   1.083       .  S
C3783      C3784   1.414       .  A
C3783      O3788   1.372       .  S
C3784      C3785   1.405       .  A
C3785      C3786   1.395       .  A
C3785      H3789   1.083       .  S
C3786      O3790   1.372       .  S
O3788      H3792   0.992       .  S
O3790      H3791   0.992       .  S
C3793      C3794   1.405       .  A
C3793      C3798   1.415       .  A
C3794      C3795   1.398       .  A
C3794      H3799   1.083       .  S
C3795      C3796   1.415       .  A
C3795      O3800   1.372       .  S
C3796      C3797   1.405       .  A
C3797      C3798   1.397       .  A
C3797      H3801   1.083       .  S
C3798      O3802   1.372       .  S
O3800      H3804   0.992       .  S
O3802      H3803   0.992       .  S
C3805      C3806   1.406       .  A
C3805      C3810   1.414       .  A
C3806      C3807   1.398       .  A
C3806      H3811   1.083       .  S
C3807      C3808   1.414       .  A
C3807      O3812   1.372       .  S
C3808      C3809   1.406       .  A
C3809      C3810   1.399       .  A
C3809      H3813   1.083       .  S
C3810      O3814   1.372       .  S
O3812      H3816   0.992       .  S
O3814      H3815   0.992       .  S
C3817      C3818   1.407       .  A
C3817      C3822   1.415       .  A
C3818      C3819   1.400       .  A
C3818      H3823   1.083       .  S
C3819      C3820   1.414       .  A
C3819      O3824   1.372       .  S
C3820      C3821   1.408       .  A
C3821      C3822   1.402       .  A
C3821      H3825   1.083       .  S
C3822      O3826   1.372       .  S
O3824      H3828   0.992       .  S
O3826      H3827   0.992       .  S
C3829      C3830   1.405       .  A
C3829      C3834   1.414       .  A
C3830      C3831   1.400       .  A
C3830      H3835   1.083       .  S
C3831      C3832   1.413       .  A
C3831      O3836   1.372       .  S
C3832      C3833   1.407       .  A
C3833      C3834   1.401       .  A
C3833      H3837   1.083       .  S
C3834      O3838   1.372       .  S
O3836      H3840   0.992       .  S
O3838      H3839   0.992       .  S
C3841      C3842   1.406       .  A
C3841      C3846   1.415       .  A
C3842      C3843   1.402       .  A
C3842      H3847   1.083       .  S
C3843      C3844   1.415       .  A
C3843      O3848   1.372       .  S
C3844      C3845   1.405       .  A
C3845      C3846   1.401       .  A
C3845      H3849   1.083       .  S
C3846      O3850   1.372       .  S
O3848      H3852   0.992       .  S
O3850      H3851   0.992       .  S
C3853      C3854   1.407       .  A
C3853      C3858   1.414       .  A
C3854      C3855   1.403       .  A
C3854      H3859   1.083       .  S
C3855      C3856   1.414       .  A
C3855      O3860   1.372       .  S
C3856      C3857   1.405       .  A
C3857      C3858   1.400       .  A
C3857      H3861   1.083       .  S
C3858      O3862   1.372       .  S
O3860      H3864   0.992       .  S
O3862      H3863   0.992       .  S
C3865      C3866   1.407       .  A
C3865      C3870   1.414       .  A
C3866      C3867   1.401       .  A
C3866      H3871   1.083       .  S
C3867      C3868   1.414       .  A
C3867      O3872   1.372       .  S
C3868      C3869   1.407       .  A
C3869      C3870   1.401       .  A
C3869      H3873   1.083       .  S
C3870      O3874   1.372       .  S
O3872      H3876   0.992       .  S
O3874      H3875   0.992       .  S
C3877      C3878   1.405       .  A
C3877      C3882   1.413       .  A
C3878      C3879   1.399       .  A
C3878      H3883   1.084       .  S
C3879      C3880   1.413       .  A
C3879      O3884   1.371       .  S
C3880      C3881   1.405       .  A
C3881      C3882   1.399       .  A
C3881      H3885   1.084       .  S
C3882      O3886   1.371       .  S
O3884      H3888   0.992       .  S
O3886      H3887   0.992       .  S
C3889      C3890   1.406       .  A
C3890      C3891   1.400       .  A
C3890      H3895   1.084       .  S
C3891      C3892   1.413       .  A
C3891      O3896   1.372       .  S
C3893      C3894   1.400       .  A
C3893      H3897   1.083       .  S
C3894      O3898   1.371       .  S
O3896      H3900   0.992       .  S
O3898      H3899   0.992       .  S
C3901      C3902   1.404       .  A
C3902      C3903   1.400       .  A
C3902      H3907   1.084       .  S
C3903      C3904   1.413       .  A
C3903      O3908   1.372       .  S
C3905      C3906   1.398       .  A
C3905      H3909   1.083       .  S
C3906      O3910   1.372       .  S
O3908      H3912   0.992       .  S
O3910      H3911   0.992   1_556  S
C3913      C3914   1.406       .  A
C3914      C3915   1.399       .  A
C3914      H3919   1.084       .  S
C3915      C3916   1.412       .  A
C3915      O3920   1.372       .  S
C3917      C3918   1.398       .  A
C3917      H3921   1.083       .  S
C3918      O3922   1.372       .  S
O3920      H3924   0.992       .  S
O3922      H3923   0.992       .  S
C3925      C3926   1.406       .  A
C3926      C3927   1.401       .  A
C3926      H3931   1.084       .  S
C3927      C3928   1.413       .  A
C3927      O3932   1.372       .  S
C3929      C3930   1.399       .  A
C3929      H3933   1.083       .  S
C3930      O3934   1.372       .  S
O3932      H3936   0.992       .  S
O3934      H3935   0.992   1_556  S
C3937      C3942   1.414       .  A
C3938      C3939   1.400       .  A
C3938      H3943   1.083       .  S
C3939      O3944   1.372       .  S
C3940      C3941   1.407       .  A
C3941      C3942   1.399       .  A
C3941      H3945   1.083       .  S
C3942      O3946   1.372       .  S
O3944      H3948   0.992       .  S
O3946      H3947   0.992       .  S
C3949      C3954   1.414       .  A
C3950      C3951   1.397   1_565  A
C3950      H3955   1.083   1_565  S
C3951      O3956   1.372       .  S
C3952      C3953   1.405       .  A
C3953      C3954   1.398       .  A
C3953      H3957   1.083       .  S
C3954      O3958   1.372       .  S
O3956      H3960   0.992       .  S
O3958      H3959   0.992       .  S
C3961      C3962   1.406       .  A
C3962      C3963   1.401       .  A
C3962      H3967   1.083       .  S
C3963      C3964   1.417       .  A
C3963      O3968   1.372       .  S
C3965      C3966   1.398       .  A
C3965      H3969   1.083       .  S
C3966      O3970   1.372       .  S
O3968      H3972   0.992       .  S
O3970      H3971   0.992   1_545  S
C3973      C3978   1.415       .  A
C3974      C3975   1.401       .  A
C3974      H3979   1.083       .  S
C3975      O3980   1.372       .  S
C3976      C3977   1.406       .  A
C3977      C3978   1.401       .  A
C3977      H3981   1.083       .  S
C3978      O3982   1.372       .  S
O3980      H3984   0.992       .  S
O3982      H3983   0.992       .  S
C3985      C3986   1.406       .  A
C3986      C3987   1.398       .  A
C3986      H3991   1.083       .  S
C3987      C3988   1.413       .  A
C3987      O3992   1.372       .  S
C3989      C3990   1.398       .  A
C3989      H3993   1.084       .  S
C3990      O3994   1.372       .  S
O3992      H3996   0.992       .  S
O3994      H3995   0.992       .  S
C3997      C4002   1.413       .  A
C3998      C3999   1.401       .  A
C3998      H4003   1.084       .  S
C3999      O4004   1.372       .  S
C4000      C4001   1.405       .  A
C4001      C4002   1.399       .  A
C4001      H4005   1.084       .  S
C4002      O4006   1.372       .  S
O4004      H4008   0.992       .  S
O4006      H4007   0.992       .  S
C4009      C4014   1.413       .  A
C4010      C4011   1.399       .  A
C4010      H4015   1.083       .  S
C4011      O4016   1.372       .  S
C4012      C4013   1.406       .  A
C4013      C4014   1.399       .  A
C4013      H4017   1.083       .  S
C4014      O4018   1.372       .  S
O4016      H4020   0.992       .  S
O4018      H4019   0.992       .  S
C4021      C4026   1.412       .  A
C4022      C4023   1.396       .  A
C4022      H4027   1.084       .  S
C4023      O4028   1.372       .  S
C4024      C4025   1.406       .  A
C4025      C4026   1.395       .  A
C4025      H4029   1.083       .  S
C4026      O4030   1.372       .  S
O4028      H4032   0.992       .  S
O4030      H4031   0.992       .  S
