geometry optimzed in LAMMPS
_audit_creation_date              2020-11-30 
_audit_creation_method            'lammps2cif' 
_symmetry_space_group_name_H-M    'P1' 
_symmetry_Int_Tables_number       1 
_symmetry_cell_setting            triclinic 
loop_ 
_symmetry_equiv_pos_as_xyz 
  x,y,z 
_cell_length_a                    26.385356395710627 
_cell_length_b                    26.807613201332916 
_cell_length_c                    31.640803926352618 
_cell_angle_alpha                 90.02556344905065 
_cell_angle_beta                  90.14998185929755 
_cell_angle_gamma                 92.01980368525413 
loop_ 
_atom_site_label 
_atom_site_type_symbol 
_atom_site_fract_x 
_atom_site_fract_y 
_atom_site_fract_z 
_atom_site_charge 
O1          O  0.36325170  0.48963051  0.42526249    -0.74740
O2          O  0.35426373  0.06654845  0.45504276    -0.53650
C3          C  0.33834531  0.02875085  0.43234272     0.78990
O4          O  0.48223024  0.37917914  0.58000983    -0.59340
O5          O  0.05622661  0.36367429  0.54561888    -0.52370
C6          C  0.01935434  0.35164811  0.57094622     0.71000
O7          O  0.36520900  0.48917591  0.57704950    -0.73900
O8          O  0.35423448  0.06463785  0.54511575    -0.54460
C9          C  0.33930168  0.02736315  0.56883006     0.77010
O10         O  0.47624581  0.37862555  0.42184317    -0.59040
O11         O  0.05206196  0.36398275  0.45416021    -0.52160
C12         C  0.01388433  0.35156887  0.42992741     0.73600
Zr13       Zr  0.44540734  0.45835927  0.43905423     2.54710
O14         O  0.37908958  0.39322591  0.43369231    -0.79610
O15         O  0.45257792  0.46822815  0.36276630    -0.93030
Zr16       Zr  0.44740890  0.45839926  0.56305976     2.64680
O17         O  0.37993179  0.39437281  0.56973320    -0.97980
O18         O  0.45640017  0.46931077  0.63915515    -0.80040
O19         O  0.41245443  0.49245391  0.50122082    -0.83400
O20         O  0.47962230  0.42354630  0.50085280    -2.18110
O21         O  0.11284088  0.00154137  0.40694786    -0.66790
O22         O  0.14726387  0.45585185  0.45842476    -0.51350
C23         C  0.15130008  0.48347596  0.42513558     0.71980
O24         O  0.02373001  0.14032082  0.57793788    -0.59700
O25         O  0.44769676  0.15391229  0.54558218    -0.51670
C26         C  0.48562281  0.16696786  0.56979757     0.73780
O27         O  0.11198597  0.00182110  0.59274242    -0.71090
O28         O  0.14762553  0.45722225  0.54152838    -0.49770
C29         C  0.15111796  0.48520978  0.57467810     0.75170
O30         O  0.02700241  0.13895732  0.42223207    -0.66420
O31         O  0.45139649  0.15355499  0.45466366    -0.53620
C32         C  0.48955517  0.16607259  0.43048296     0.73550
Zr33       Zr  0.05364735  0.05731348  0.43746507     2.77540
O34         O  0.13085061  0.11012688  0.43677494    -0.97170
O35         O  0.04393285  0.06634215  0.36133039    -0.77990
Zr36       Zr  0.05436840  0.05926708  0.56214941     2.70070
O37         O  0.13220481  0.11055100  0.55786050    -0.79240
O38         O  0.05102230  0.07269333  0.63820821    -0.98320
Zr39       Zr  0.43068363  0.08000141  0.50025421     2.21500
Zr40       Zr  0.06986508  0.43732616  0.50014832     2.11130
O41         O  0.08902102  0.02570735  0.49997348    -2.47010
O42         O  0.02057066  0.09272407  0.49961651    -0.79030
O43         O  0.03443088  0.47068952  0.43671481    -0.71230
O44         O  0.46525308  0.04550112  0.56382492    -2.32180
O45         O  0.46420249  0.04496159  0.43676177    -2.28390
O46         O  0.03606944  0.47220455  0.56370355    -0.72990
H47         H  0.47076051  0.38831378  0.50104558     0.79010
H48         H  0.45096618  0.06055795  0.58864313     0.80100
H49         H  0.12506581  0.03315098  0.49993936     0.82320
H50         H  0.44960436  0.05981206  0.41193131     0.79930
H51         H  0.42911136  0.49190935  0.64710964     0.42970
H52         H  0.04283538  0.03929258  0.65023385     0.41940
H53         H  0.12796747  0.13090361  0.53206968     0.41610
H54         H  0.15784908  0.08953075  0.44860367     0.39550
H55         H  0.03768056  0.03190209  0.35077560     0.42680
H56         H  0.42711812  0.49301837  0.35524371     0.37460
H57         H  0.36928147  0.38622128  0.46334834     0.43580
H58         H  0.38875440  0.36779694  0.54957356     0.40000
H59         H  0.13949633  0.11351523  0.40645262     0.44910
H60         H  0.43861704  0.43633723  0.35106403     0.43640
H61         H  0.38461908  0.37950929  0.59806225     0.43770
H62         H  0.08667240  0.08005069  0.64665289     0.44130
C63         C  0.49858438  0.25910077  0.34094495     0.03680
C64         C  0.49590696  0.21417025  0.36402925    -0.12470
C65         C  0.49235368  0.21422933  0.40842547     0.01180
C66         C  0.00256018  0.25876309  0.43050061    -0.10990
C67         C  0.51062732  0.30339005  0.40815187     0.03670
C68         C  0.50313419  0.30365218  0.36423953    -0.10410
H69         H  0.49675402  0.17867225  0.34786089     0.09270
H70         H  0.00390359  0.25873578  0.46458956     0.06800
H71         H  0.50067113  0.33926372  0.34840426     0.06640
C72         C  0.24731663  0.01972960  0.34124635     0.03680
C73         C  0.29038268  0.03208658  0.36573564    -0.12470
C74         C  0.28919547  0.02827817  0.41008102     0.01180
C75         C  0.24472201  0.00898625  0.42985228    -0.10990
C76         C  0.20107145  0.99667447  0.40564617     0.03670
C77         C  0.20258618  0.00410599  0.36176467    -0.10410
H78         H  0.32584740  0.04206410  0.35013406     0.09270
H79         H  0.24427542  0.00325214  0.46365036     0.06800
H80         H  0.16871023  0.99654112  0.34303449     0.06640
C81         C  0.24736692  0.01980233  0.65960502     0.03680
C82         C  0.29140803  0.02871234  0.63547175    -0.12470
C83         C  0.29013344  0.02663219  0.59101440     0.01180
C84         C  0.24503085  0.00963841  0.57068504    -0.10990
C85         C  0.20070560  0.99939883  0.59444945     0.03670
C86         C  0.20189137  0.00813157  0.63821879    -0.10410
H87         H  0.32754090  0.03515152  0.65124972     0.09270
H88         H  0.24465900  0.00385367  0.53688819     0.06800
H89         H  0.16715766  0.00389393  0.65624784     0.06640
C90         C  0.49776705  0.25993724  0.65833147     0.03680
C91         C  0.48555446  0.21611910  0.63574907    -0.12470
C92         C  0.48771870  0.21554611  0.59138487     0.01180
C93         C  0.50379877  0.25909876  0.56970599    -0.10990
C94         C  0.51650458  0.30305399  0.59220372     0.03670
C95         C  0.51272726  0.30314702  0.63630775    -0.10410
H96         H  0.47559991  0.18209400  0.65278779     0.09270
H97         H  0.50600646  0.25889065  0.53566063     0.06800
H98         H  0.51985167  0.33765685  0.65359742     0.06640
C99         C  0.24299080  0.02386461  0.15660689     0.03680
C100        C  0.26190282  0.48451283  0.13262941    -0.12470
C101        C  0.25679549  0.48348511  0.08850003     0.01180
C102        C  0.23469455  0.02408929  0.06802635    -0.10990
C103        C  0.21756325  0.06502376  0.09125987     0.03670
C104        C  0.22052889  0.06365443  0.13558110    -0.10410
H105        H  0.27796456  0.45293396  0.14857987     0.09270
H106        H  0.23129344  0.02406277  0.03420159     0.06800
H107        H  0.20738967  0.09501665  0.15364739     0.06640
O108        O  0.21778803  0.40621527  0.92628172    -0.74740
O109        O  0.29632039  0.42107360  0.95544602    -0.53650
C110        C  0.25731287  0.43387235  0.93336173     0.78990
O111        O  0.10551733  0.28646645  0.07792546    -0.59340
O112        O  0.08886247  0.21179067  0.04466900    -0.52370
C113        C  0.07713880  0.24830088  0.06921112     0.71000
O114        O  0.21923099  0.40652477  0.07524489    -0.73900
O115        O  0.29668297  0.42176764  0.04456764    -0.54460
C116        C  0.25839811  0.43442195  0.06745106     0.77010
O117        O  0.10578220  0.28534681  0.92002708    -0.59040
O118        O  0.08836995  0.21192341  0.95489893    -0.52160
C119        C  0.07675529  0.24782727  0.92958522     0.73600
Zr120      Zr  0.18729149  0.32219183  0.93745960     2.54710
O121        O  0.12021876  0.38152107  0.92925643    -0.79610
O122        O  0.20096197  0.31857524  0.86145416    -0.93030
Zr123      Zr  0.18651223  0.32357472  0.06145935     2.64680
O124        O  0.12312499  0.38723611  0.06747128    -0.97980
O125        O  0.19577109  0.31516575  0.13765473    -0.80040
O126        O  0.22193389  0.35833674  0.99945387    -0.83400
O127        O  0.15114543  0.28787227  0.99941784    -2.18110
O128        O  0.25322936  0.14288997  0.92147093    -0.66790
O129        O  0.17804555  0.12516957  0.95492783    -0.51350
C130        C  0.21512420  0.11407106  0.93010745     0.71980
O131        O  0.36882513  0.25744863  0.07770363    -0.59700
O132        O  0.38605252  0.33281432  0.04598710    -0.51670
C133        C  0.39757693  0.29546739  0.06986957     0.73780
O134        O  0.25133243  0.14405589  0.08108499    -0.71010
O135        O  0.17807798  0.12502034  0.04484651    -0.49770
C136        C  0.21421284  0.11446201  0.07099462     0.75170
O137        O  0.36827754  0.26007383  0.92009360    -0.66420
O138        O  0.38647040  0.33333525  0.95504091    -0.53620
C139        C  0.39746229  0.29751149  0.92932027     0.73550
Zr140      Zr  0.28777691  0.22383609  0.93894854     2.77540
O141        O  0.35576032  0.16463452  0.93714467    -0.97170
O142        O  0.27688661  0.22637081  0.86270270    -0.77990
Zr143      Zr  0.28584502  0.22505952  0.06330587     2.70070
O144        O  0.34855635  0.16202710  0.07494774    -0.79240
O145        O  0.27481918  0.24042121  0.13846536    -0.98320
Zr146      Zr  0.31112856  0.34691855  0.00032276     2.21500
Zr147      Zr  0.16393391  0.19958651  0.99985050     2.11130
O148        O  0.25321158  0.18814386  0.00093715    -2.47010
O149        O  0.32273326  0.25903731  0.00128346    -0.79030
O150        O  0.19951567  0.23523318  0.93633869    -0.71230
O151        O  0.27469625  0.31207865  0.06382073    -2.32180
O152        O  0.27566900  0.31072720  0.93690229    -2.28390
O153        O  0.19782209  0.23635838  0.06372297    -0.72990
H154        H  0.11548588  0.29470315  0.99911530     0.79010
H155        H  0.28991168  0.32741612  0.08863948     0.80100
H156        H  0.26085992  0.15321149  0.00123696     0.82320
H157        H  0.29144937  0.32590482  0.91234788     0.79930
H158        H  0.22660108  0.33556350  0.14483567     0.42970
H159        H  0.25231000  0.21252889  0.14837251     0.41940
H160        H  0.35754088  0.15081285  0.04618349     0.41610
H161        H  0.34509427  0.13765849  0.95691615     0.39550
H162        H  0.24343900  0.20964944  0.85728201     0.42680
H163        H  0.23644879  0.30918342  0.85738375     0.37460
H164        H  0.11026674  0.38961161  0.95856005     0.43580
H165        H  0.09581652  0.37702683  0.04740557     0.40000
H166        H  0.35352354  0.14914014  0.90875352     0.44910
H167        H  0.20102151  0.35389978  0.85246819     0.43640
H168        H  0.10798623  0.38247667  0.09585605     0.43770
H169        H  0.30830488  0.23405536  0.15116732     0.44130
C170        C  0.48735815  0.26775083  0.15667125     0.03680
C171        C  0.02715721  0.24793132  0.13388417    -0.12470
C172        C  0.02778358  0.25027193  0.08973170     0.01180
C173        C  0.48756812  0.27246285  0.06837438    -0.10990
C174        C  0.44692298  0.29204241  0.09085997     0.03670
C175        C  0.44732213  0.28965573  0.13525869    -0.10410
H176        H  0.05934095  0.23346330  0.15074014     0.09270
H177        H  0.48782620  0.27431241  0.03436834     0.06800
H178        H  0.41517574  0.30240371  0.15305221     0.06640
C179        C  0.24246794  0.02354026  0.84423477     0.03680
C180        C  0.22204871  0.06427161  0.86518281    -0.12470
C181        C  0.21819299  0.06501488  0.90945238     0.01180
C182        C  0.23435937  0.02361850  0.93261091    -0.10990
C183        C  0.25542135  0.48260348  0.91206770     0.03670
C184        C  0.25941383  0.48312282  0.86787459    -0.10410
H185        H  0.21108930  0.09650608  0.84706526     0.09270
H186        H  0.23107411  0.02356009  0.96643227     0.06800
H187        H  0.27333716  0.45074569  0.85160561     0.06640
C188        C  0.48619049  0.26899568  0.84220436     0.03680
C189        C  0.02408964  0.24571181  0.86559742    -0.12470
C190        C  0.02652032  0.25003799  0.90964366     0.01180
C191        C  0.48744985  0.27392603  0.93098545    -0.10990
C192        C  0.44720300  0.29467934  0.90858472     0.03670
C193        C  0.44820205  0.29394529  0.86413073    -0.10410
H194        H  0.05432819  0.22737421  0.84925857     0.09270
H195        H  0.48821358  0.27609865  0.96497299     0.06800
H196        H  0.41769919  0.31068294  0.84680634     0.06640
C197        C  0.49454113  0.26141039  0.70526340    -0.04790
C198        C  0.44781092  0.25173547  0.72578268    -0.01900
C199        C  0.44493000  0.25317206  0.77031688     0.03090
C200        C  0.48794497  0.26810238  0.79475048    -0.04780
C201        C  0.03368077  0.28135931  0.77352571    -0.01890
C202        C  0.03765476  0.27561747  0.72945566     0.03080
C203        C  0.40209205  0.24290839  0.70090525     0.37730
C204        C  0.07619817  0.30348341  0.79661934     0.37720
C205        C  0.08650172  0.28383749  0.70908246     0.36150
C206        C  0.39747702  0.23911475  0.79052650     0.36150
N207        N  0.12544708  0.29016221  0.69284094    -0.38670
N208        N  0.35914976  0.22846849  0.80627161    -0.38670
N209        N  0.10993612  0.32141315  0.81514070    -0.38120
N210        N  0.36570276  0.23680632  0.68080634    -0.38120
C211        C  0.24488705  0.02245692  0.79717891    -0.04790
C212        C  0.21736159  0.48521294  0.77456217    -0.01900
C213        C  0.22202629  0.48178585  0.73034133     0.03090
C214        C  0.24844612  0.02004278  0.70724918    -0.04780
C215        C  0.27432842  0.05878202  0.73019459    -0.01890
C216        C  0.27464171  0.05830424  0.77486624     0.03080
C217        C  0.18174609  0.45213057  0.79663489     0.37730
C218        C  0.29944974  0.10014616  0.70832873     0.37720
C219        C  0.30660892  0.09390215  0.79808215     0.36150
C220        C  0.20082089  0.43765800  0.70924941     0.36150
N221        N  0.33248311  0.12145223  0.81715111    -0.38670
N222        N  0.18384617  0.40241602  0.69258803    -0.38670
N223        N  0.31961821  0.13307929  0.69083167    -0.38120
N224        N  0.15242254  0.42689332  0.81437711    -0.38120
C225        C  0.24894620  0.02036814  0.29388183    -0.04790
C226        C  0.23067432  0.47824366  0.27060769    -0.01900
C227        C  0.22600517  0.48067971  0.22630405     0.03090
C228        C  0.24564939  0.02267482  0.20391848    -0.04780
C229        C  0.26733276  0.06341931  0.22697555    -0.01890
C230        C  0.26660684  0.06330157  0.27163504     0.03080
C231        C  0.21761874  0.43164703  0.29199551     0.37730
C232        C  0.29094154  0.10542427  0.20486941     0.37720
C233        C  0.28161322  0.10838319  0.29446561     0.36150
C234        C  0.19820061  0.44096022  0.20417472     0.36150
N235        N  0.29291166  0.14450204  0.31273921    -0.38670
N236        N  0.17537940  0.40962254  0.18665804    -0.38670
N237        N  0.30971116  0.13888882  0.18709657    -0.38120
N238        N  0.20750504  0.39447210  0.30908305    -0.38120
C239        C  0.49621578  0.26026894  0.29306835    -0.04790
C240        C  0.02479576  0.29719125  0.26978047    -0.01900
C241        C  0.01793427  0.30205969  0.22581423     0.03090
C242        C  0.48871898  0.26611258  0.20340999    -0.04780
C243        C  0.46399001  0.22673028  0.22523018    -0.01890
C244        C  0.46473188  0.22552912  0.26981654     0.03080
C245        C  0.06345601  0.32901652  0.28984433     0.37730
C246        C  0.43954846  0.18626900  0.20144799     0.37720
C247        C  0.43199848  0.18875907  0.29077316     0.36150
C248        C  0.04104100  0.34421937  0.20332063     0.36150
N249        N  0.40635718  0.15871514  0.30715953    -0.38670
N250        N  0.05857269  0.37811482  0.18524386    -0.38670
N251        N  0.42151068  0.15357600  0.18209230    -0.38120
N252        N  0.09408119  0.35490219  0.30554467    -0.38120
O253        O  0.36325170  0.98963051  0.42526249    -0.74740
O254        O  0.35426373  0.56654845  0.45504276    -0.53650
C255        C  0.33834532  0.52875086  0.43234272     0.78990
O256        O  0.48223023  0.87917914  0.58000982    -0.59340
O257        O  0.05622660  0.86367429  0.54561889    -0.52370
C258        C  0.01935432  0.85164810  0.57094622     0.71000
O259        O  0.36520899  0.98917590  0.57704949    -0.73900
O260        O  0.35423448  0.56463785  0.54511575    -0.54460
C261        C  0.33930168  0.52736315  0.56883007     0.77010
O262        O  0.47624581  0.87862555  0.42184316    -0.59040
O263        O  0.05206196  0.86398274  0.45416022    -0.52160
C264        C  0.01388433  0.85156887  0.42992742     0.73600
Zr265      Zr  0.44540734  0.95835928  0.43905422     2.54710
O266        O  0.37908959  0.89322591  0.43369227    -0.79610
O267        O  0.45257793  0.96822817  0.36276630    -0.93030
Zr268      Zr  0.44740889  0.95839925  0.56305975     2.64680
O269        O  0.37993178  0.89437280  0.56973315    -0.97980
O270        O  0.45640014  0.96931075  0.63915514    -0.80040
O271        O  0.41245443  0.99245391  0.50122081    -0.83400
O272        O  0.47962230  0.92354630  0.50085279    -2.18110
O273        O  0.11284090  0.50154142  0.40694785    -0.66790
O274        O  0.14726387  0.95585183  0.45842478    -0.51350
C275        C  0.15130008  0.98347594  0.42513559     0.71980
O276        O  0.02372999  0.64032083  0.57793787    -0.59700
O277        O  0.44769676  0.65391229  0.54558218    -0.51670
C278        C  0.48562281  0.66696786  0.56979757     0.73780
O279        O  0.11198598  0.50182112  0.59274241    -0.71090
O280        O  0.14762554  0.95722223  0.54152839    -0.49770
C281        C  0.15111796  0.98520977  0.57467811     0.75170
O282        O  0.02700239  0.63895732  0.42223207    -0.66420
O283        O  0.45139650  0.65355499  0.45466366    -0.53620
C284        C  0.48955518  0.66607259  0.43048297     0.73550
Zr285      Zr  0.05364733  0.55731348  0.43746505     2.77540
O286        O  0.13085057  0.61012689  0.43677487    -0.97170
O287        O  0.04393274  0.56634211  0.36133038    -0.77990
Zr288      Zr  0.05436839  0.55926709  0.56214940     2.70070
O289        O  0.13220480  0.61055101  0.55786047    -0.79240
O290        O  0.05102229  0.57269335  0.63820820    -0.98320
Zr291      Zr  0.43068364  0.58000141  0.50025421     2.21500
Zr292      Zr  0.06986508  0.93732615  0.50014833     2.11130
O293        O  0.08902100  0.52570736  0.49997347    -2.47010
O294        O  0.02057064  0.59272407  0.49961649    -0.79030
O295        O  0.03443090  0.97068952  0.43671482    -0.71230
O296        O  0.46525309  0.54550113  0.56382492    -2.32180
O297        O  0.46420249  0.54496159  0.43676178    -2.28390
O298        O  0.03606944  0.97220454  0.56370356    -0.72990
H299        H  0.47076052  0.88831378  0.50104557     0.79010
H300        H  0.45096619  0.56055796  0.58864314     0.80100
H301        H  0.12506579  0.53315099  0.49993934     0.82320
H302        H  0.44960436  0.55981205  0.41193132     0.79930
H303        H  0.42911135  0.99190936  0.64710963     0.42970
H304        H  0.04283538  0.53929259  0.65023384     0.41940
H305        H  0.12796745  0.63090362  0.53206965     0.41610
H306        H  0.15784904  0.58953080  0.44860367     0.39550
H307        H  0.03768058  0.53190203  0.35077559     0.42680
H308        H  0.42711811  0.99301837  0.35524371     0.37460
H309        H  0.36928148  0.88622127  0.46334831     0.43580
H310        H  0.38875440  0.86779694  0.54957352     0.40000
H311        H  0.13949632  0.61351516  0.40645256     0.44910
H312        H  0.43861708  0.93633724  0.35106402     0.43640
H313        H  0.38461905  0.87950927  0.59806221     0.43770
H314        H  0.08667239  0.58005070  0.64665288     0.44130
C315        C  0.49858440  0.75910076  0.34094495     0.03680
C316        C  0.49590697  0.71417025  0.36402925    -0.12470
C317        C  0.49235369  0.71422933  0.40842547     0.01180
C318        C  0.00256017  0.75876309  0.43050062    -0.10990
C319        C  0.51062732  0.80339005  0.40815187     0.03670
C320        C  0.50313420  0.80365218  0.36423953    -0.10410
H321        H  0.49675404  0.67867224  0.34786089     0.09270
H322        H  0.00390359  0.75873578  0.46458956     0.06800
H323        H  0.50067115  0.83926371  0.34840425     0.06640
C324        C  0.24731665  0.51972960  0.34124634     0.03680
C325        C  0.29038270  0.53208658  0.36573564    -0.12470
C326        C  0.28919548  0.52827817  0.41008102     0.01180
C327        C  0.24472202  0.50898626  0.42985227    -0.10990
C328        C  0.20107146  0.49667448  0.40564616     0.03670
C329        C  0.20258619  0.50410599  0.36176466    -0.10410
H330        H  0.32584742  0.54206410  0.35013406     0.09270
H331        H  0.24427542  0.50325215  0.46365035     0.06800
H332        H  0.16871025  0.49654112  0.34303448     0.06640
C333        C  0.24736691  0.51980232  0.65960501     0.03680
C334        C  0.29140803  0.52871233  0.63547175    -0.12470
C335        C  0.29013344  0.52663219  0.59101440     0.01180
C336        C  0.24503085  0.50963841  0.57068504    -0.10990
C337        C  0.20070560  0.49939883  0.59444944     0.03670
C338        C  0.20189137  0.50813156  0.63821879    -0.10410
H339        H  0.32754090  0.53515151  0.65124972     0.09270
H340        H  0.24465900  0.50385368  0.53688819     0.06800
H341        H  0.16715765  0.50389391  0.65624784     0.06640
C342        C  0.49776703  0.75993724  0.65833147     0.03680
C343        C  0.48555446  0.71611910  0.63574907    -0.12470
C344        C  0.48771869  0.71554611  0.59138487     0.01180
C345        C  0.50379877  0.75909876  0.56970599    -0.10990
C346        C  0.51650458  0.80305399  0.59220372     0.03670
C347        C  0.51272725  0.80314702  0.63630775    -0.10410
H348        H  0.47559990  0.68209400  0.65278779     0.09270
H349        H  0.50600646  0.75889065  0.53566063     0.06800
H350        H  0.51985166  0.83765685  0.65359742     0.06640
C351        C  0.24299081  0.52386460  0.15660688     0.03680
C352        C  0.26190282  0.98451284  0.13262942    -0.12470
C353        C  0.25679550  0.98348511  0.08850003     0.01180
C354        C  0.23469456  0.52408929  0.06802634    -0.10990
C355        C  0.21756326  0.56502376  0.09125986     0.03670
C356        C  0.22052890  0.56365444  0.13558110    -0.10410
H357        H  0.27796457  0.95293397  0.14857988     0.09270
H358        H  0.23129344  0.52406277  0.03420159     0.06800
H359        H  0.20738970  0.59501665  0.15364739     0.06640
O360        O  0.21778805  0.90621528  0.92628173    -0.74740
O361        O  0.29632041  0.92107361  0.95544603    -0.53650
C362        C  0.25731289  0.93387236  0.93336173     0.78990
O363        O  0.10551735  0.78646645  0.07792547    -0.59340
O364        O  0.08886249  0.71179068  0.04466900    -0.52370
C365        C  0.07713883  0.74830089  0.06921113     0.71000
O366        O  0.21923101  0.90652478  0.07524490    -0.73900
O367        O  0.29668299  0.92176765  0.04456765    -0.54460
C368        C  0.25839813  0.93442196  0.06745107     0.77010
O369        O  0.10578222  0.78534682  0.92002708    -0.59040
O370        O  0.08836997  0.71192342  0.95489893    -0.52160
C371        C  0.07675531  0.74782728  0.92958523     0.73600
Zr372      Zr  0.18729151  0.82219185  0.93745961     2.54710
O373        O  0.12021878  0.88152109  0.92925646    -0.79610
O374        O  0.20096198  0.81857526  0.86145417    -0.93030
Zr375      Zr  0.18651225  0.82357472  0.06145936     2.64680
O376        O  0.12312502  0.88723612  0.06747130    -0.97980
O377        O  0.19577113  0.81516575  0.13765474    -0.80040
O378        O  0.22193391  0.85833675  0.99945388    -0.83400
O379        O  0.15114545  0.78787228  0.99941785    -2.18110
O380        O  0.25322939  0.64288998  0.92147093    -0.66790
O381        O  0.17804557  0.62516958  0.95492783    -0.51350
C382        C  0.21512422  0.61407107  0.93010745     0.71980
O383        O  0.36882515  0.75744865  0.07770363    -0.59700
O384        O  0.38605254  0.83281434  0.04598710    -0.51670
C385        C  0.39757695  0.79546740  0.06986957     0.73780
O386        O  0.25133246  0.64405589  0.08108498    -0.71010
O387        O  0.17807800  0.62502035  0.04484651    -0.49770
C388        C  0.21421286  0.61446201  0.07099461     0.75170
O389        O  0.36827756  0.76007385  0.92009359    -0.66420
O390        O  0.38647042  0.83333526  0.95504091    -0.53620
C391        C  0.39746230  0.79751151  0.92932027     0.73550
Zr392      Zr  0.28777693  0.72383611  0.93894854     2.77540
O393        O  0.35576035  0.66463455  0.93714464    -0.97170
O394        O  0.27688660  0.72637084  0.86270270    -0.77990
Zr395      Zr  0.28584505  0.72505952  0.06330587     2.70070
O396        O  0.34855639  0.66202712  0.07494774    -0.79240
O397        O  0.27481920  0.74042120  0.13846536    -0.98320
Zr398      Zr  0.31112858  0.84691856  0.00032276     2.21500
Zr399      Zr  0.16393393  0.69958652  0.99985051     2.11130
O400        O  0.25321160  0.68814387  0.00093714    -2.47010
O401        O  0.32273328  0.75903732  0.00128346    -0.79030
O402        O  0.19951569  0.73523320  0.93633869    -0.71230
O403        O  0.27469627  0.81207865  0.06382074    -2.32180
O404        O  0.27566902  0.81072721  0.93690230    -2.28390
O405        O  0.19782211  0.73635839  0.06372297    -0.72990
H406        H  0.11548590  0.79470316  0.99911531     0.79010
H407        H  0.28991171  0.82741613  0.08863948     0.80100
H408        H  0.26085994  0.65321150  0.00123696     0.82320
H409        H  0.29144938  0.82590484  0.91234788     0.79930
H410        H  0.22660111  0.83556350  0.14483568     0.42970
H411        H  0.25231002  0.71252888  0.14837250     0.41940
H412        H  0.35754094  0.65081288  0.04618349     0.41610
H413        H  0.34509432  0.63765852  0.95691612     0.39550
H414        H  0.24343899  0.70964945  0.85728201     0.42680
H415        H  0.23644881  0.80918347  0.85738376     0.37460
H416        H  0.11026677  0.88961163  0.95856008     0.43580
H417        H  0.09581654  0.87702684  0.04740560     0.40000
H418        H  0.35352356  0.64914017  0.90875349     0.44910
H419        H  0.20102149  0.85389980  0.85246820     0.43640
H420        H  0.10798626  0.88247667  0.09585608     0.43770
H421        H  0.30830490  0.73405536  0.15116732     0.44130
C422        C  0.48735817  0.76775083  0.15667125     0.03680
C423        C  0.02715723  0.74793132  0.13388417    -0.12470
C424        C  0.02778360  0.75027194  0.08973170     0.01180
C425        C  0.48756814  0.77246286  0.06837438    -0.10990
C426        C  0.44692300  0.79204242  0.09085998     0.03670
C427        C  0.44732216  0.78965573  0.13525870    -0.10410
H428        H  0.05934096  0.73346330  0.15074015     0.09270
H429        H  0.48782622  0.77431242  0.03436834     0.06800
H430        H  0.41517577  0.80240372  0.15305222     0.06640
C431        C  0.24246793  0.52354026  0.84423477     0.03680
C432        C  0.22204871  0.56427162  0.86518281    -0.12470
C433        C  0.21819300  0.56501489  0.90945238     0.01180
C434        C  0.23435938  0.52361850  0.93261091    -0.10990
C435        C  0.25542136  0.98260349  0.91206771     0.03670
C436        C  0.25941386  0.98312283  0.86787460    -0.10410
H437        H  0.21108931  0.59650608  0.84706527     0.09270
H438        H  0.23107413  0.52356009  0.96643227     0.06800
H439        H  0.27333720  0.95074571  0.85160561     0.06640
C440        C  0.48619051  0.76899569  0.84220436     0.03680
C441        C  0.02408966  0.74571182  0.86559742    -0.12470
C442        C  0.02652034  0.75003800  0.90964367     0.01180
C443        C  0.48744986  0.77392605  0.93098545    -0.10990
C444        C  0.44720302  0.79467936  0.90858472     0.03670
C445        C  0.44820207  0.79394531  0.86413073    -0.10410
H446        H  0.05432821  0.72737422  0.84925857     0.09270
H447        H  0.48821359  0.77609868  0.96497299     0.06800
H448        H  0.41769921  0.81068296  0.84680634     0.06640
C449        C  0.49454112  0.76141039  0.70526340    -0.04790
C450        C  0.44781092  0.75173547  0.72578269    -0.01900
C451        C  0.44493001  0.75317207  0.77031689     0.03090
C452        C  0.48794498  0.76810238  0.79475048    -0.04780
C453        C  0.03368078  0.78135930  0.77352571    -0.01890
C454        C  0.03765476  0.77561746  0.72945565     0.03080
C455        C  0.40209204  0.74290839  0.70090526     0.37730
C456        C  0.07619819  0.80348340  0.79661933     0.37720
C457        C  0.08650171  0.78383747  0.70908245     0.36150
C458        C  0.39747703  0.73911475  0.79052651     0.36150
N459        N  0.12544707  0.79016219  0.69284092    -0.38670
N460        N  0.35914977  0.72846850  0.80627163    -0.38670
N461        N  0.10993614  0.82141314  0.81514068    -0.38120
N462        N  0.36570275  0.73680631  0.68080635    -0.38120
C463        C  0.24488703  0.52245692  0.79717891    -0.04790
C464        C  0.21736161  0.98521294  0.77456217    -0.01900
C465        C  0.22202630  0.98178586  0.73034133     0.03090
C466        C  0.24844612  0.52004277  0.70724918    -0.04780
C467        C  0.27432840  0.55878201  0.73019459    -0.01890
C468        C  0.27464169  0.55830424  0.77486623     0.03080
C469        C  0.18174610  0.95213057  0.79663490     0.37730
C470        C  0.29944972  0.60014616  0.70832872     0.37720
C471        C  0.30660890  0.59390216  0.79808215     0.36150
C472        C  0.20082089  0.93765801  0.70924941     0.36150
N473        N  0.33248308  0.62145224  0.81715111    -0.38670
N474        N  0.18384617  0.90241604  0.69258803    -0.38670
N475        N  0.31961819  0.63307929  0.69083166    -0.38120
N476        N  0.15242254  0.92689334  0.81437712    -0.38120
C477        C  0.24894622  0.52036814  0.29388182    -0.04790
C478        C  0.23067431  0.97824366  0.27060770    -0.01900
C479        C  0.22600517  0.98067971  0.22630406     0.03090
C480        C  0.24564941  0.52267482  0.20391848    -0.04780
C481        C  0.26733277  0.56341931  0.22697554    -0.01890
C482        C  0.26660687  0.56330156  0.27163503     0.03080
C483        C  0.21761873  0.93164703  0.29199551     0.37730
C484        C  0.29094157  0.60542426  0.20486940     0.37720
C485        C  0.28161324  0.60838319  0.29446560     0.36150
C486        C  0.19820061  0.94096022  0.20417472     0.36150
N487        N  0.29291169  0.64450203  0.31273920    -0.38670
N488        N  0.17537941  0.90962253  0.18665804    -0.38670
N489        N  0.30971119  0.63888880  0.18709656    -0.38120
N490        N  0.20750503  0.89447210  0.30908305    -0.38120
C491        C  0.49621580  0.76026893  0.29306835    -0.04790
C492        C  0.02479575  0.79719126  0.26978047    -0.01900
C493        C  0.01793426  0.80205969  0.22581423     0.03090
C494        C  0.48871901  0.76611258  0.20340999    -0.04780
C495        C  0.46399004  0.72673027  0.22523018    -0.01890
C496        C  0.46473190  0.72552911  0.26981654     0.03080
C497        C  0.06345599  0.82901653  0.28984433     0.37730
C498        C  0.43954849  0.68626899  0.20144799     0.37720
C499        C  0.43199851  0.68875906  0.29077316     0.36150
C500        C  0.04104099  0.84421939  0.20332063     0.36150
N501        N  0.40635721  0.65871512  0.30715952    -0.38670
N502        N  0.05857268  0.87811484  0.18524387    -0.38670
N503        N  0.42151071  0.65357600  0.18209229    -0.38120
N504        N  0.09408117  0.85490220  0.30554467    -0.38120
O505        O  0.86325168  0.48963051  0.42526247    -0.74740
O506        O  0.85426372  0.06654845  0.45504276    -0.53650
C507        C  0.83834531  0.02875086  0.43234272     0.78990
O508        O  0.98223025  0.37917915  0.58000981    -0.59340
O509        O  0.55622661  0.36367428  0.54561890    -0.52370
C510        C  0.51935433  0.35164810  0.57094624     0.71000
O511        O  0.86520899  0.48917590  0.57704949    -0.73900
O512        O  0.85423448  0.06463786  0.54511574    -0.54460
C513        C  0.83930168  0.02736315  0.56883006     0.77010
O514        O  0.97624580  0.37862555  0.42184315    -0.59040
O515        O  0.55206197  0.36398274  0.45416023    -0.52160
C516        C  0.51388434  0.35156887  0.42992743     0.73600
Zr517      Zr  0.94540732  0.45835927  0.43905421     2.54710
O518        O  0.87908956  0.39322591  0.43369230    -0.79610
O519        O  0.95257789  0.46822814  0.36276628    -0.93030
Zr520      Zr  0.94740889  0.45839925  0.56305974     2.64680
O521        O  0.87993179  0.39437280  0.56973316    -0.97980
O522        O  0.95640016  0.46931076  0.63915513    -0.80040
O523        O  0.91245442  0.49245391  0.50122080    -0.83400
O524        O  0.97962230  0.42354631  0.50085278    -2.18110
O525        O  0.61284087  0.00154135  0.40694787    -0.66790
O526        O  0.64726388  0.45585182  0.45842479    -0.51350
C527        C  0.65130006  0.48347591  0.42513560     0.71980
O528        O  0.52373000  0.14032082  0.57793789    -0.59700
O529        O  0.94769677  0.15391230  0.54558217    -0.51670
C530        C  0.98562282  0.16696786  0.56979756     0.73780
O531        O  0.61198598  0.00182110  0.59274242    -0.71090
O532        O  0.64762554  0.45722223  0.54152840    -0.49770
C533        C  0.65111796  0.48520976  0.57467812     0.75170
O534        O  0.52700241  0.13895731  0.42223207    -0.66420
O535        O  0.95139649  0.15355500  0.45466365    -0.53620
C536        C  0.98955517  0.16607260  0.43048296     0.73550
Zr537      Zr  0.55364736  0.05731348  0.43746508     2.77540
O538        O  0.63085062  0.11012686  0.43677494    -0.97170
O539        O  0.54393286  0.06634215  0.36133039    -0.77990
Zr540      Zr  0.55436840  0.05926708  0.56214942     2.70070
O541        O  0.63220481  0.11055100  0.55786051    -0.79240
O542        O  0.55102230  0.07269333  0.63820822    -0.98320
Zr543      Zr  0.93068363  0.08000141  0.50025420     2.21500
Zr544      Zr  0.56986508  0.43732615  0.50014835     2.11130
O545        O  0.58902102  0.02570734  0.49997349    -2.47010
O546        O  0.52057066  0.09272407  0.49961652    -0.79030
O547        O  0.53443090  0.47068951  0.43671483    -0.71230
O548        O  0.96525308  0.04550113  0.56382491    -2.32180
O549        O  0.96420249  0.04496160  0.43676177    -2.28390
O550        O  0.53606944  0.47220454  0.56370357    -0.72990
H551        H  0.97076051  0.38831379  0.50104556     0.79010
H552        H  0.95096618  0.06055796  0.58864313     0.80100
H553        H  0.62506581  0.03315098  0.49993937     0.82320
H554        H  0.94960436  0.05981207  0.41193131     0.79930
H555        H  0.92911136  0.49190936  0.64710962     0.42970
H556        H  0.54283538  0.03929257  0.65023386     0.41940
H557        H  0.62796746  0.13090362  0.53206969     0.41610
H558        H  0.65784909  0.08953075  0.44860369     0.39550
H559        H  0.53768058  0.03190208  0.35077561     0.42680
H560        H  0.92711810  0.49301838  0.35524370     0.37460
H561        H  0.86928145  0.38622129  0.46334833     0.43580
H562        H  0.88875441  0.36779693  0.54957353     0.40000
H563        H  0.63949635  0.11351520  0.40645262     0.44910
H564        H  0.93861700  0.43633723  0.35106401     0.43640
H565        H  0.88461907  0.37950927  0.59806221     0.43770
H566        H  0.58667240  0.08005068  0.64665290     0.44130
C567        C  0.99858438  0.25910077  0.34094494     0.03680
C568        C  0.99590695  0.21417025  0.36402924    -0.12470
C569        C  0.99235367  0.21422933  0.40842546     0.01180
C570        C  0.50256019  0.25876308  0.43050063    -0.10990
C571        C  0.01062732  0.30339005  0.40815186     0.03670
C572        C  0.00313420  0.30365218  0.36423952    -0.10410
H573        H  0.99675401  0.17867225  0.34786088     0.09270
H574        H  0.50390360  0.25873577  0.46458957     0.06800
H575        H  0.00067114  0.33926372  0.34840424     0.06640
C576        C  0.74731661  0.01972961  0.34124635     0.03680
C577        C  0.79038267  0.03208659  0.36573564    -0.12470
C578        C  0.78919546  0.02827818  0.41008102     0.01180
C579        C  0.74472201  0.00898625  0.42985228    -0.10990
C580        C  0.70107144  0.99667447  0.40564617     0.03670
C581        C  0.70258616  0.00410599  0.36176468    -0.10410
H582        H  0.82584738  0.04206411  0.35013405     0.09270
H583        H  0.74427542  0.00325214  0.46365036     0.06800
H584        H  0.66871022  0.99654112  0.34303450     0.06640
C585        C  0.74736693  0.01980233  0.65960502     0.03680
C586        C  0.79140804  0.02871234  0.63547175    -0.12470
C587        C  0.79013345  0.02663220  0.59101439     0.01180
C588        C  0.74503085  0.00963842  0.57068504    -0.10990
C589        C  0.70070561  0.99939884  0.59444945     0.03670
C590        C  0.70189138  0.00813158  0.63821879    -0.10410
H591        H  0.82754091  0.03515152  0.65124971     0.09270
H592        H  0.74465900  0.00385367  0.53688819     0.06800
H593        H  0.66715766  0.00389394  0.65624785     0.06640
C594        C  0.99776706  0.25993725  0.65833146     0.03680
C595        C  0.98555448  0.21611911  0.63574906    -0.12470
C596        C  0.98771871  0.21554612  0.59138485     0.01180
C597        C  0.00379879  0.25909877  0.56970597    -0.10990
C598        C  0.01650460  0.30305400  0.59220370     0.03670
C599        C  0.01272728  0.30314703  0.63630774    -0.10410
H600        H  0.97559993  0.18209401  0.65278778     0.09270
H601        H  0.00600647  0.25889066  0.53566062     0.06800
H602        H  0.01985169  0.33765686  0.65359740     0.06640
C603        C  0.74299078  0.02386459  0.15660689     0.03680
C604        C  0.76190279  0.48451281  0.13262943    -0.12470
C605        C  0.75679550  0.48348509  0.08850004     0.01180
C606        C  0.73469460  0.02408927  0.06802635    -0.10990
C607        C  0.71756327  0.06502374  0.09125985     0.03670
C608        C  0.72052888  0.06365442  0.13558109    -0.10410
H609        H  0.77796452  0.45293394  0.14857991     0.09270
H610        H  0.73129352  0.02406276  0.03420159     0.06800
H611        H  0.70738965  0.09501663  0.15364737     0.06640
O612        O  0.71778800  0.40621529  0.92628175    -0.74740
O613        O  0.79632038  0.42107359  0.95544602    -0.53650
C614        C  0.75731285  0.43387235  0.93336174     0.78990
O615        O  0.60551734  0.28646643  0.07792548    -0.59340
O616        O  0.58886247  0.21179067  0.04466900    -0.52370
C617        C  0.57713881  0.24830087  0.06921114     0.71000
O618        O  0.71923102  0.40652474  0.07524493    -0.73900
O619        O  0.79668298  0.42176763  0.04456764    -0.54460
C620        C  0.75839813  0.43442193  0.06745108     0.77010
O621        O  0.60578219  0.28534681  0.92002709    -0.59040
O622        O  0.58836995  0.21192340  0.95489894    -0.52160
C623        C  0.57675528  0.24782727  0.92958524     0.73600
Zr624      Zr  0.68729147  0.32219184  0.93745962     2.54710
O625        O  0.62021873  0.38152108  0.92925649    -0.79610
O626        O  0.70096194  0.31857529  0.86145418    -0.93030
Zr627      Zr  0.68651225  0.32357469  0.06145937     2.64680
O628        O  0.62312502  0.38723610  0.06747131    -0.97980
O629        O  0.69577112  0.31516572  0.13765475    -0.80040
O630        O  0.72193389  0.35833674  0.99945389    -0.83400
O631        O  0.65114543  0.28787226  0.99941786    -2.18110
O632        O  0.75322933  0.14288999  0.92147090    -0.66790
O633        O  0.67804555  0.12516956  0.95492783    -0.51350
C634        C  0.71512418  0.11407107  0.93010743     0.71980
O635        O  0.86882514  0.25744864  0.07770362    -0.59700
O636        O  0.88605252  0.33281433  0.04598709    -0.51670
C637        C  0.89757693  0.29546740  0.06986956     0.73780
O638        O  0.75133247  0.14405586  0.08108496    -0.71010
O639        O  0.67807799  0.12502034  0.04484651    -0.49770
C640        C  0.71421287  0.11446199  0.07099460     0.75170
O641        O  0.86827753  0.26007383  0.92009357    -0.66420
O642        O  0.88647040  0.33333524  0.95504090    -0.53620
C643        C  0.89746228  0.29751148  0.92932026     0.73550
Zr644      Zr  0.78777689  0.22383610  0.93894852     2.77540
O645        O  0.85576030  0.16463452  0.93714463    -0.97170
O646        O  0.77688660  0.22637083  0.86270268    -0.77990
Zr647      Zr  0.78584504  0.22505950  0.06330585     2.70070
O648        O  0.84855640  0.16202711  0.07494772    -0.79240
O649        O  0.77481918  0.24042118  0.13846534    -0.98320
Zr650      Zr  0.81112856  0.34691854  0.00032275     2.21500
Zr651      Zr  0.66393391  0.19958650  0.99985051     2.11130
O652        O  0.75321158  0.18814386  0.00093713    -2.47010
O653        O  0.82273326  0.25903730  0.00128344    -0.79030
O654        O  0.69951566  0.23523320  0.93633869    -0.71230
O655        O  0.77469627  0.31207863  0.06382073    -2.32180
O656        O  0.77566899  0.31072720  0.93690229    -2.28390
O657        O  0.69782211  0.23635836  0.06372297    -0.72990
H658        H  0.61548588  0.29470314  0.99911532     0.79010
H659        H  0.78991171  0.32741610  0.08863947     0.80100
H660        H  0.76085992  0.15321148  0.00123693     0.82320
H661        H  0.79144934  0.32590483  0.91234787     0.79930
H662        H  0.72660109  0.33556347  0.14483569     0.42970
H663        H  0.75230999  0.21252886  0.14837248     0.41940
H664        H  0.85754095  0.15081288  0.04618347     0.41610
H665        H  0.84509425  0.13765849  0.95691612     0.39550
H666        H  0.74343899  0.20964946  0.85728198     0.42680
H667        H  0.73644873  0.30918341  0.85738376     0.37460
H668        H  0.61026672  0.38961160  0.95856012     0.43580
H669        H  0.59581654  0.37702681  0.04740560     0.40000
H670        H  0.85352351  0.14914015  0.90875349     0.44910
H671        H  0.70102153  0.35389984  0.85246823     0.43640
H672        H  0.60798625  0.38247665  0.09585608     0.43770
H673        H  0.80830487  0.23405532  0.15116730     0.44130
C674        C  0.98735815  0.26775083  0.15667124     0.03680
C675        C  0.52715721  0.24793131  0.13388418    -0.12470
C676        C  0.52778358  0.25027192  0.08973171     0.01180
C677        C  0.98756812  0.27246287  0.06837437    -0.10990
C678        C  0.94692298  0.29204242  0.09085997     0.03670
C679        C  0.94732213  0.28965574  0.13525869    -0.10410
H680        H  0.55934095  0.23346330  0.15074016     0.09270
H681        H  0.98782620  0.27431243  0.03436833     0.06800
H682        H  0.91517574  0.30240372  0.15305221     0.06640
C683        C  0.74246796  0.02354026  0.84423477     0.03680
C684        C  0.72204872  0.06427161  0.86518280    -0.12470
C685        C  0.71819298  0.06501489  0.90945236     0.01180
C686        C  0.73435934  0.02361850  0.93261090    -0.10990
C687        C  0.75542133  0.48260349  0.91206771     0.03670
C688        C  0.75941384  0.48312282  0.86787460    -0.10410
H689        H  0.71108931  0.09650608  0.84706525     0.09270
H690        H  0.73107405  0.02356009  0.96643226     0.06800
H691        H  0.77333718  0.45074569  0.85160563     0.06640
C692        C  0.98619049  0.26899568  0.84220434     0.03680
C693        C  0.52408964  0.24571180  0.86559743    -0.12470
C694        C  0.52652032  0.25003798  0.90964368     0.01180
C695        C  0.98744984  0.27392603  0.93098544    -0.10990
C696        C  0.94720300  0.29467934  0.90858471     0.03670
C697        C  0.94820205  0.29394529  0.86413072    -0.10410
H698        H  0.55432818  0.22737420  0.84925858     0.09270
H699        H  0.98821357  0.27609865  0.96497298     0.06800
H700        H  0.91769919  0.31068293  0.84680632     0.06640
C701        C  0.99454114  0.26141040  0.70526338    -0.04790
C702        C  0.94781093  0.25173548  0.72578267    -0.01900
C703        C  0.94493001  0.25317206  0.77031686     0.03090
C704        C  0.98794498  0.26810238  0.79475046    -0.04780
C705        C  0.53368076  0.28135931  0.77352573    -0.01890
C706        C  0.53765475  0.27561746  0.72945567     0.03080
C707        C  0.90209206  0.24290839  0.70090523     0.37730
C708        C  0.57619816  0.30348342  0.79661935     0.37720
C709        C  0.58650171  0.28383747  0.70908247     0.36150
C710        C  0.89747703  0.23911474  0.79052648     0.36150
N711        N  0.62544707  0.29016219  0.69284095    -0.38670
N712        N  0.85914977  0.22846848  0.80627159    -0.38670
N713        N  0.60993611  0.32141316  0.81514071    -0.38120
N714        N  0.86570278  0.23680632  0.68080631    -0.38120
C715        C  0.74488707  0.02245691  0.79717891    -0.04790
C716        C  0.71736162  0.48521293  0.77456217    -0.01900
C717        C  0.72202631  0.48178585  0.73034134     0.03090
C718        C  0.74844614  0.02004278  0.70724918    -0.04780
C719        C  0.77432845  0.05878201  0.73019459    -0.01890
C720        C  0.77464174  0.05830423  0.77486624     0.03080
C721        C  0.68174610  0.45213057  0.79663490     0.37730
C722        C  0.79944978  0.10014615  0.70832873     0.37720
C723        C  0.80660896  0.09390213  0.79808215     0.36150
C724        C  0.70082089  0.43765801  0.70924941     0.36150
N725        N  0.83248316  0.12145220  0.81715112    -0.38670
N726        N  0.68384616  0.40241603  0.69258804    -0.38670
N727        N  0.81961825  0.13307928  0.69083167    -0.38120
N728        N  0.65242254  0.42689334  0.81437712    -0.38120
C729        C  0.74894618  0.02036815  0.29388183    -0.04790
C730        C  0.73067426  0.47824367  0.27060770    -0.01900
C731        C  0.72600511  0.48067971  0.22630406     0.03090
C732        C  0.74564936  0.02267482  0.20391849    -0.04780
C733        C  0.76733272  0.06341932  0.22697555    -0.01890
C734        C  0.76660681  0.06330157  0.27163504     0.03080
C735        C  0.71761868  0.43164704  0.29199552     0.37730
C736        C  0.79094150  0.10542427  0.20486940     0.37720
C737        C  0.78161318  0.10838320  0.29446560     0.36150
C738        C  0.69820056  0.44096021  0.20417473     0.36150
N739        N  0.79291163  0.14450205  0.31273920    -0.38670
N740        N  0.67537937  0.40962252  0.18665806    -0.38670
N741        N  0.80971111  0.13888882  0.18709656    -0.38120
N742        N  0.70750499  0.39447211  0.30908307    -0.38120
C743        C  0.99621578  0.26026894  0.29306834    -0.04790
C744        C  0.52479575  0.29719126  0.26978048    -0.01900
C745        C  0.51793425  0.30205970  0.22581424     0.03090
C746        C  0.98871898  0.26611258  0.20340998    -0.04780
C747        C  0.96399000  0.22673029  0.22523017    -0.01890
C748        C  0.96473187  0.22552912  0.26981653     0.03080
C749        C  0.56345598  0.32901655  0.28984433     0.37730
C750        C  0.93954843  0.18626902  0.20144798     0.37720
C751        C  0.93199847  0.18875908  0.29077315     0.36150
C752        C  0.54104096  0.34421939  0.20332064     0.36150
N753        N  0.90635716  0.15871516  0.30715952    -0.38670
N754        N  0.55857264  0.37811485  0.18524387    -0.38670
N755        N  0.92151063  0.15357604  0.18209229    -0.38120
N756        N  0.59408115  0.35490222  0.30554467    -0.38120
O757        O  0.86325169  0.98963052  0.42526248    -0.74740
O758        O  0.85426371  0.56654845  0.45504275    -0.53650
C759        C  0.83834529  0.52875085  0.43234271     0.78990
O760        O  0.98223023  0.87917914  0.58000981    -0.59340
O761        O  0.55622660  0.86367428  0.54561890    -0.52370
C762        C  0.51935432  0.85164810  0.57094623     0.71000
O763        O  0.86520899  0.98917591  0.57704948    -0.73900
O764        O  0.85423447  0.56463784  0.54511574    -0.54460
C765        C  0.83930167  0.52736315  0.56883006     0.77010
O766        O  0.97624581  0.87862556  0.42184316    -0.59040
O767        O  0.55206197  0.86398274  0.45416023    -0.52160
C768        C  0.51388434  0.85156887  0.42992743     0.73600
Zr769      Zr  0.94540733  0.95835928  0.43905421     2.54710
O770        O  0.87908958  0.89322592  0.43369228    -0.79610
O771        O  0.95257792  0.96822817  0.36276629    -0.93030
Zr772      Zr  0.94740889  0.95839926  0.56305974     2.64680
O773        O  0.87993178  0.89437280  0.56973316    -0.97980
O774        O  0.95640015  0.96931076  0.63915513    -0.80040
O775        O  0.91245443  0.99245391  0.50122080    -0.83400
O776        O  0.97962230  0.92354631  0.50085278    -2.18110
O777        O  0.61284085  0.50154131  0.40694787    -0.66790
O778        O  0.64726388  0.95585183  0.45842479    -0.51350
C779        C  0.65130007  0.98347593  0.42513560     0.71980
O780        O  0.52373000  0.64032082  0.57793789    -0.59700
O781        O  0.94769674  0.65391229  0.54558217    -0.51670
C782        C  0.98562280  0.66696786  0.56979756     0.73780
O783        O  0.61198597  0.50182109  0.59274242    -0.71090
O784        O  0.64762554  0.95722223  0.54152840    -0.49770
C785        C  0.65111796  0.98520977  0.57467812     0.75170
O786        O  0.52700241  0.63895731  0.42223208    -0.66420
O787        O  0.95139647  0.65355499  0.45466365    -0.53620
C788        C  0.98955515  0.66607260  0.43048296     0.73550
Zr789      Zr  0.55364736  0.55731347  0.43746507     2.77540
O790        O  0.63085063  0.61012685  0.43677492    -0.97170
O791        O  0.54393285  0.56634214  0.36133039    -0.77990
Zr792      Zr  0.55436841  0.55926708  0.56214942     2.70070
O793        O  0.63220482  0.61055100  0.55786049    -0.79240
O794        O  0.55102234  0.57269336  0.63820822    -0.98320
Zr795      Zr  0.93068362  0.58000141  0.50025420     2.21500
Zr796      Zr  0.56986508  0.93732615  0.50014834     2.11130
O797        O  0.58902102  0.52570734  0.49997349    -2.47010
O798        O  0.52057066  0.59272406  0.49961651    -0.79030
O799        O  0.53443090  0.97068952  0.43671483    -0.71230
O800        O  0.96525307  0.54550113  0.56382490    -2.32180
O801        O  0.96420247  0.54496159  0.43676176    -2.28390
O802        O  0.53606943  0.97220454  0.56370357    -0.72990
H803        H  0.97076051  0.88831379  0.50104556     0.79010
H804        H  0.95096618  0.56055796  0.58864312     0.80100
H805        H  0.62506581  0.53315097  0.49993937     0.82320
H806        H  0.94960433  0.55981206  0.41193130     0.79930
H807        H  0.92911135  0.99190935  0.64710962     0.42970
H808        H  0.54283541  0.53929260  0.65023387     0.41940
H809        H  0.62796746  0.63090362  0.53206967     0.41610
H810        H  0.65784909  0.58953074  0.44860368     0.39550
H811        H  0.53768056  0.53190208  0.35077561     0.42680
H812        H  0.92711812  0.99301839  0.35524370     0.37460
H813        H  0.86928147  0.88622129  0.46334832     0.43580
H814        H  0.88875440  0.86779694  0.54957353     0.40000
H815        H  0.63949637  0.61351515  0.40645260     0.44910
H816        H  0.93861704  0.93633725  0.35106401     0.43640
H817        H  0.88461906  0.87950928  0.59806222     0.43770
H818        H  0.58667244  0.58005070  0.64665289     0.44130
C819        C  0.99858436  0.75910077  0.34094494     0.03680
C820        C  0.99590693  0.71417025  0.36402924    -0.12470
C821        C  0.99235366  0.71422934  0.40842546     0.01180
C822        C  0.50256019  0.75876309  0.43050063    -0.10990
C823        C  0.01062731  0.80339005  0.40815186     0.03670
C824        C  0.00313418  0.80365219  0.36423952    -0.10410
H825        H  0.99675398  0.67867225  0.34786088     0.09270
H826        H  0.50390359  0.75873577  0.46458957     0.06800
H827        H  0.00067113  0.83926372  0.34840424     0.06640
C828        C  0.74731659  0.51972962  0.34124635     0.03680
C829        C  0.79038265  0.53208660  0.36573564    -0.12470
C830        C  0.78919544  0.52827817  0.41008102     0.01180
C831        C  0.74472199  0.50898625  0.42985228    -0.10990
C832        C  0.70107142  0.49667448  0.40564617     0.03670
C833        C  0.70258614  0.50410601  0.36176468    -0.10410
H834        H  0.82584736  0.54206411  0.35013405     0.09270
H835        H  0.74427541  0.50325213  0.46365036     0.06800
H836        H  0.66871019  0.49654114  0.34303450     0.06640
C837        C  0.74736692  0.51980232  0.65960502     0.03680
C838        C  0.79140804  0.52871232  0.63547175    -0.12470
C839        C  0.79013344  0.52663219  0.59101440     0.01180
C840        C  0.74503085  0.50963841  0.57068504    -0.10990
C841        C  0.70070560  0.49939883  0.59444945     0.03670
C842        C  0.70189138  0.50813157  0.63821880    -0.10410
H843        H  0.82754091  0.53515150  0.65124972     0.09270
H844        H  0.74465899  0.50385367  0.53688820     0.06800
H845        H  0.66715766  0.50389393  0.65624785     0.06640
C846        C  0.99776704  0.75993724  0.65833146     0.03680
C847        C  0.98555445  0.71611910  0.63574906    -0.12470
C848        C  0.98771869  0.71554611  0.59138485     0.01180
C849        C  0.00379876  0.75909876  0.56970597    -0.10990
C850        C  0.01650458  0.80305399  0.59220370     0.03670
C851        C  0.01272726  0.80314702  0.63630774    -0.10410
H852        H  0.97559990  0.68209400  0.65278778     0.09270
H853        H  0.00600645  0.75889066  0.53566062     0.06800
H854        H  0.01985167  0.83765685  0.65359741     0.06640
C855        C  0.74299076  0.52386459  0.15660688     0.03680
C856        C  0.76190281  0.98451282  0.13262943    -0.12470
C857        C  0.75679551  0.98348509  0.08850004     0.01180
C858        C  0.73469460  0.52408927  0.06802634    -0.10990
C859        C  0.71756328  0.56502375  0.09125985     0.03670
C860        C  0.72052888  0.56365442  0.13558108    -0.10410
H861        H  0.77796455  0.95293395  0.14857990     0.09270
H862        H  0.73129354  0.52406276  0.03420158     0.06800
H863        H  0.70738965  0.59501664  0.15364736     0.06640
O864        O  0.71778801  0.90621530  0.92628175    -0.74740
O865        O  0.79632040  0.92107360  0.95544601    -0.53650
C866        C  0.75731287  0.93387236  0.93336174     0.78990
O867        O  0.60551736  0.78646643  0.07792549    -0.59340
O868        O  0.58886249  0.71179067  0.04466900    -0.52370
C869        C  0.57713883  0.74830087  0.06921114     0.71000
O870        O  0.71923104  0.90652475  0.07524493    -0.73900
O871        O  0.79668300  0.92176764  0.04456764    -0.54460
C872        C  0.75839815  0.93442194  0.06745108     0.77010
O873        O  0.60578221  0.78534683  0.92002710    -0.59040
O874        O  0.58836996  0.71192342  0.95489893    -0.52160
C875        C  0.57675530  0.74782728  0.92958524     0.73600
Zr876      Zr  0.68729149  0.82219186  0.93745962     2.54710
O877        O  0.62021875  0.88152110  0.92925652    -0.79610
O878        O  0.70096194  0.81857532  0.86145418    -0.93030
Zr879      Zr  0.68651227  0.82357470  0.06145938     2.64680
O880        O  0.62312504  0.88723610  0.06747134    -0.97980
O881        O  0.69577115  0.81516571  0.13765475    -0.80040
O882        O  0.72193391  0.85833675  0.99945390    -0.83400
O883        O  0.65114545  0.78787227  0.99941787    -2.18110
O884        O  0.75322935  0.64289000  0.92147090    -0.66790
O885        O  0.67804556  0.62516957  0.95492783    -0.51350
C886        C  0.71512420  0.61407108  0.93010743     0.71980
O887        O  0.86882516  0.75744864  0.07770361    -0.59700
O888        O  0.88605254  0.83281434  0.04598709    -0.51670
C889        C  0.89757695  0.79546740  0.06986956     0.73780
O890        O  0.75133250  0.64405586  0.08108494    -0.71010
O891        O  0.67807800  0.62502035  0.04484651    -0.49770
C892        C  0.71421289  0.61446199  0.07099459     0.75170
O893        O  0.86827755  0.76007385  0.92009357    -0.66420
O894        O  0.88647042  0.83333525  0.95504090    -0.53620
C895        C  0.89746230  0.79751150  0.92932026     0.73550
Zr896      Zr  0.78777691  0.72383611  0.93894851     2.77540
O897        O  0.85576032  0.66463455  0.93714458    -0.97170
O898        O  0.77688658  0.72637088  0.86270267    -0.77990
Zr899      Zr  0.78584507  0.72505950  0.06330584     2.70070
O900        O  0.84855643  0.66202712  0.07494771    -0.79240
O901        O  0.77481920  0.74042117  0.13846533    -0.98320
Zr902      Zr  0.81112858  0.84691855  0.00032275     2.21500
Zr903      Zr  0.66393393  0.69958651  0.99985050     2.11130
O904        O  0.75321160  0.68814387  0.00093712    -2.47010
O905        O  0.82273328  0.75903731  0.00128343    -0.79030
O906        O  0.69951567  0.73523321  0.93633869    -0.71230
O907        O  0.77469629  0.81207863  0.06382073    -2.32180
O908        O  0.77566900  0.81072722  0.93690229    -2.28390
O909        O  0.69782213  0.73635836  0.06372297    -0.72990
H910        H  0.61548590  0.79470315  0.99911533     0.79010
H911        H  0.78991173  0.82741610  0.08863947     0.80100
H912        H  0.76085994  0.65321149  0.00123692     0.82320
H913        H  0.79144936  0.82590485  0.91234787     0.79930
H914        H  0.72660113  0.83556347  0.14483569     0.42970
H915        H  0.75231001  0.71252885  0.14837247     0.41940
H916        H  0.85754099  0.65081289  0.04618346     0.41610
H917        H  0.84509429  0.63765852  0.95691607     0.39550
H918        H  0.74343898  0.70964948  0.85728198     0.42680
H919        H  0.73644875  0.80918348  0.85738376     0.37460
H920        H  0.61026676  0.88961163  0.95856015     0.43580
H921        H  0.59581656  0.87702683  0.04740563     0.40000
H922        H  0.85352351  0.64914017  0.90875343     0.44910
H923        H  0.70102149  0.85389986  0.85246823     0.43640
H924        H  0.60798629  0.88247665  0.09585611     0.43770
H925        H  0.80830489  0.73405531  0.15116729     0.44130
C926        C  0.98735816  0.76775084  0.15667124     0.03680
C927        C  0.52715723  0.74793132  0.13388418    -0.12470
C928        C  0.52778360  0.75027193  0.08973171     0.01180
C929        C  0.98756814  0.77246287  0.06837437    -0.10990
C930        C  0.94692300  0.79204243  0.09085996     0.03670
C931        C  0.94732215  0.78965574  0.13525868    -0.10410
H932        H  0.55934097  0.73346330  0.15074015     0.09270
H933        H  0.98782623  0.77431244  0.03436833     0.06800
H934        H  0.91517576  0.80240373  0.15305220     0.06640
C935        C  0.74246795  0.52354025  0.84423477     0.03680
C936        C  0.72204873  0.56427161  0.86518280    -0.12470
C937        C  0.71819299  0.56501489  0.90945236     0.01180
C938        C  0.73435934  0.52361850  0.93261090    -0.10990
C939        C  0.75542135  0.98260350  0.91206771     0.03670
C940        C  0.75941386  0.98312283  0.86787460    -0.10410
H941        H  0.71108934  0.59650608  0.84706525     0.09270
H942        H  0.73107405  0.52356009  0.96643227     0.06800
H943        H  0.77333720  0.95074571  0.85160562     0.06640
C944        C  0.98619052  0.76899568  0.84220435     0.03680
C945        C  0.52408965  0.74571182  0.86559743    -0.12470
C946        C  0.52652033  0.75003800  0.90964368     0.01180
C947        C  0.98744986  0.77392605  0.93098544    -0.10990
C948        C  0.94720302  0.79467935  0.90858471     0.03670
C949        C  0.94820207  0.79394530  0.86413072    -0.10410
H950        H  0.55432819  0.72737421  0.84925858     0.09270
H951        H  0.98821359  0.77609867  0.96497298     0.06800
H952        H  0.91769921  0.81068294  0.84680632     0.06640
C953        C  0.99454113  0.76141038  0.70526338    -0.04790
C954        C  0.94781093  0.75173546  0.72578268    -0.01900
C955        C  0.94493002  0.75317205  0.77031688     0.03090
C956        C  0.98794499  0.76810238  0.79475046    -0.04780
C957        C  0.53368077  0.78135930  0.77352572    -0.01890
C958        C  0.53765475  0.77561746  0.72945567     0.03080
C959        C  0.90209205  0.74290838  0.70090525     0.37730
C960        C  0.57619818  0.80348341  0.79661934     0.37720
C961        C  0.58650170  0.78383746  0.70908246     0.36150
C962        C  0.89747704  0.73911473  0.79052650     0.36150
N963        N  0.62544707  0.79016218  0.69284094    -0.38670
N964        N  0.85914979  0.72846846  0.80627162    -0.38670
N965        N  0.60993613  0.82141315  0.81514069    -0.38120
N966        N  0.86570276  0.73680630  0.68080634    -0.38120
C967        C  0.74488707  0.52245691  0.79717891    -0.04790
C968        C  0.71736161  0.98521294  0.77456217    -0.01900
C969        C  0.72202631  0.98178586  0.73034133     0.03090
C970        C  0.74844614  0.52004276  0.70724918    -0.04780
C971        C  0.77432844  0.55878200  0.73019459    -0.01890
C972        C  0.77464174  0.55830422  0.77486624     0.03080
C973        C  0.68174610  0.95213058  0.79663489     0.37730
C974        C  0.79944977  0.60014614  0.70832873     0.37720
C975        C  0.80660896  0.59390212  0.79808215     0.36150
C976        C  0.70082088  0.93765802  0.70924941     0.36150
N977        N  0.83248315  0.62145220  0.81715111    -0.38670
N978        N  0.68384615  0.90241605  0.69258803    -0.38670
N979        N  0.81961824  0.63307926  0.69083167    -0.38120
N980        N  0.65242253  0.92689335  0.81437711    -0.38120
C981        C  0.74894615  0.52036816  0.29388183    -0.04790
C982        C  0.73067429  0.97824366  0.27060770    -0.01900
C983        C  0.72600514  0.98067971  0.22630406     0.03090
C984        C  0.74564934  0.52267482  0.20391848    -0.04780
C985        C  0.76733270  0.56341932  0.22697555    -0.01890
C986        C  0.76660679  0.56330158  0.27163503     0.03080
C987        C  0.71761872  0.93164703  0.29199552     0.37730
C988        C  0.79094149  0.60542427  0.20486940     0.37720
C989        C  0.78161316  0.60838321  0.29446560     0.36150
C990        C  0.69820060  0.94096020  0.20417473     0.36150
N991        N  0.79291161  0.64450206  0.31273919    -0.38670
N992        N  0.67537940  0.90962251  0.18665806    -0.38670
N993        N  0.80971111  0.63888881  0.18709656    -0.38120
N994        N  0.70750503  0.89447210  0.30908307    -0.38120
C995        C  0.99621577  0.76026894  0.29306834    -0.04790
C996        C  0.52479577  0.79719125  0.26978048    -0.01900
C997        C  0.51793427  0.80205969  0.22581424     0.03090
C998        C  0.98871899  0.76611259  0.20340998    -0.04780
C999        C  0.96399000  0.72673029  0.22523017    -0.01890
C1000       C  0.96473186  0.72552913  0.26981653     0.03080
C1001       C  0.56345601  0.82901653  0.28984434     0.37730
C1002       C  0.93954843  0.68626902  0.20144798     0.37720
C1003       C  0.93199846  0.68875909  0.29077315     0.36150
C1004       C  0.54104099  0.84421939  0.20332064     0.36150
N1005       N  0.90635714  0.65871517  0.30715951    -0.38670
N1006       N  0.55857268  0.87811484  0.18524388    -0.38670
N1007       N  0.92151063  0.65357604  0.18209228    -0.38120
N1008       N  0.59408118  0.85490220  0.30554468    -0.38120
loop_ 
_geom_bond_atom_site_label_1 
_geom_bond_atom_site_label_2 
_geom_bond_distance 
_geom_bond_site_symmetry_2 
_ccdc_geom_bond_type 
O1          Zr13   2.391       .  S
O1          C255   1.277       .  A
O2          Zr39   2.485       .  S
O2            C3   1.299       .  A
C3          O253   1.277   1_545  A
C3           C74   1.474       .  S
O4          Zr16   2.404       .  S
O4          C510   1.280       .  A
O5          Zr40   2.460       .  S
O5            C6   1.294       .  A
C6          O508   1.280   1_455  A
C6          C598   1.466       .  S
O7          Zr16   2.390       .  S
O7          C261   1.277       .  A
O8          Zr39   2.492       .  S
O8            C9   1.300       .  A
C9          O259   1.277   1_545  A
C9           C83   1.476       .  S
O10         Zr13   2.377       .  S
O10         C516   1.276       .  A
O11         Zr40   2.476       .  S
O11          C12   1.298       .  A
C12         O514   1.276   1_455  A
C12         C571   1.463       .  S
Zr13         O14   2.434       .  S
Zr13         O15   2.436       .  S
Zr13         O19   2.350       .  S
Zr13         O20   2.358       .  S
Zr13        O547   2.362       .  S
Zr13        O297   2.358       .  S
O14          H57   0.990       .  S
O15          H56   0.990       .  S
O15          H60   0.990       .  S
Zr16         O17   2.439       .  S
Zr16         O18   2.435       .  S
Zr16         O20   2.352       .  S
Zr16         O19   2.359       .  S
Zr16        O296   2.366       .  S
Zr16        O550   2.356       .  S
O17          H58   0.990       .  S
O17          H61   0.990       .  S
O18          H51   0.990       .  S
O19        Zr291   2.379       .  S
O20        Zr544   2.397       .  S
O20          H47   0.965       .  S
O21         Zr33   2.404       .  S
O21         C275   1.276   1_545  A
O22         Zr40   2.470       .  S
O22          C23   1.290       .  A
C23         O273   1.276       .  A
C23         C328   1.484       .  S
O24         Zr36   2.398       .  S
O24         C530   1.279   1_455  A
O25         Zr39   2.473       .  S
O25          C26   1.297       .  A
C26         O528   1.279       .  A
C26          C92   1.470       .  S
O27         Zr36   2.404       .  S
O27         C281   1.275   1_545  A
O28         Zr40   2.473       .  S
O28          C29   1.291       .  A
C29         O279   1.275       .  A
C29         C337   1.486       .  S
O30         Zr33   2.372       .  S
O30         C536   1.275   1_455  A
O31         Zr39   2.490       .  S
O31          C32   1.301       .  A
C32         O534   1.275       .  A
C32          C65   1.467       .  S
Zr33         O34   2.440       .  S
Zr33         O35   2.435       .  S
Zr33         O41   2.355       .  S
Zr33         O42   2.366       .  S
Zr33        O549   2.372   1_455  S
Zr33        O295   2.359   1_545  S
O34          H54   0.989       .  S
O34          H59   0.990       .  S
O35          H55   0.990       .  S
Zr36         O37   2.435       .  S
Zr36         O38   2.435       .  S
Zr36         O42   2.359       .  S
Zr36         O41   2.363       .  S
Zr36        O298   2.367   1_545  S
Zr36        O548   2.368   1_455  S
O37          H53   0.990       .  S
O38          H52   0.990       .  S
O38          H62   0.990       .  S
Zr39         O44   2.405       .  S
Zr39         O45   2.401       .  S
Zr39        O271   2.379   1_545  S
Zr39        O546   2.384       .  S
Zr40         O43   2.399       .  S
Zr40         O46   2.404       .  S
Zr40        O524   2.397   1_455  S
Zr40        O293   2.405       .  S
O41        Zr292   2.405   1_545  S
O41          H49   0.965       .  S
O42        Zr543   2.384   1_455  S
O43        Zr517   2.362   1_455  S
O43        Zr285   2.359       .  S
O44        Zr268   2.366   1_545  S
O44        Zr540   2.368       .  S
O44          H48   0.966       .  S
O45        Zr265   2.358   1_545  S
O45        Zr537   2.372       .  S
O45          H50   0.966       .  S
O46        Zr520   2.356   1_455  S
O46        Zr288   2.367       .  S
C63         C239   1.516       .  S
C63          C64   1.409       .  A
C63          C68   1.405       .  A
C64          C65   1.408       .  A
C64          H69   1.081       .  S
C65         C570   1.400       .  A
C66         C569   1.400   1_455  A
C66         C571   1.400       .  A
C66          H70   1.079       .  S
C67         C516   1.463       .  S
C67          C68   1.403       .  A
C67         C570   1.400       .  A
C68          H71   1.082       .  S
C72         C225   1.499       .  S
C72          C73   1.404       .  A
C72          C77   1.400       .  A
C73          C74   1.407       .  A
C73          H78   1.084       .  S
C74          C75   1.413       .  A
C75          C76   1.411   1_545  A
C75          H79   1.080       .  S
C76         C275   1.484       .  S
C76          C77   1.403   1_565  A
C77          H80   1.084   1_545  S
C81         C214   1.508       .  S
C81          C82   1.406       .  A
C81          C86   1.402       .  A
C82          C83   1.408       .  A
C82          H87   1.083       .  S
C83          C84   1.412       .  A
C84          C85   1.411   1_545  A
C84          H88   1.080       .  S
C85         C281   1.486       .  S
C85          C86   1.405   1_565  A
C86          H89   1.083       .  S
C90         C197   1.488       .  S
C90          C91   1.402       .  A
C90          C95   1.398       .  A
C91          C92   1.405       .  A
C91          H96   1.084       .  S
C92          C93   1.407       .  A
C93          C94   1.406       .  A
C93          H97   1.079       .  S
C94         C510   1.466       .  S
C94          C95   1.399       .  A
C95          H98   1.085       .  S
C99         C228   1.499       .  S
C99         C104   1.405       .  A
C99         C352   1.406   1_545  A
C100        C101   1.403       .  A
C100        C351   1.406       .  A
C100        H105   1.084       .  S
C101        C116   1.476       .  S
C101        C354   1.410       .  A
C102        C103   1.409       .  A
C102        C353   1.410   1_545  A
C102        H106   1.074       .  S
C103        C136   1.478       .  S
C103        C104   1.405       .  A
C104        H107   1.084       .  S
O108       Zr120   2.392       .  S
O108        C110   1.277       .  A
O109       Zr146   2.485   1_556  S
O109        C110   1.299       .  A
C110        C183   1.472       .  S
O111       Zr123   2.384       .  S
O111        C113   1.276       .  A
O112       Zr147   2.470   1_554  S
O112        C113   1.296       .  A
C113        C172   1.459       .  S
O114       Zr123   2.396       .  S
O114        C116   1.279       .  A
O115       Zr146   2.487       .  S
O115        C116   1.299       .  A
O117       Zr120   2.398       .  S
O117        C119   1.279       .  A
O118       Zr147   2.478       .  S
O118        C119   1.297       .  A
C119        C190   1.470       .  S
Zr120       O121   2.434       .  S
Zr120       O122   2.435       .  S
Zr120       O126   2.356       .  S
Zr120       O127   2.356       .  S
Zr120       O150   2.365       .  S
Zr120       O152   2.363       .  S
O121        H164   0.990       .  S
O122        H163   0.987       .  S
O122        H167   0.989       .  S
Zr123       O124   2.439       .  S
Zr123       O125   2.434       .  S
Zr123       O127   2.359   1_554  S
Zr123       O126   2.354   1_554  S
Zr123       O151   2.359       .  S
Zr123       O153   2.369       .  S
O124        H165   0.990       .  S
O124        H168   0.990       .  S
O125        H158   0.990       .  S
O126       Zr146   2.384   1_556  S
O127       Zr147   2.402       .  S
O127        H154   0.965       .  S
O128       Zr140   2.388       .  S
O128        C130   1.276       .  A
O129       Zr147   2.488       .  S
O129        C130   1.299       .  A
C130        C181   1.473       .  S
O131       Zr143   2.370       .  S
O131        C133   1.274       .  A
O132       Zr146   2.485       .  S
O132        C133   1.299       .  A
C133        C174   1.466       .  S
O134       Zr143   2.393       .  S
O134        C136   1.278       .  A
O135       Zr147   2.493   1_554  S
O135        C136   1.300       .  A
O137       Zr140   2.382       .  S
O137        C139   1.277       .  A
O138       Zr146   2.491   1_556  S
O138        C139   1.300       .  A
C139        C192   1.473       .  S
Zr140       O141   2.437       .  S
Zr140       O142   2.430       .  S
Zr140       O148   2.355   1_556  S
Zr140       O149   2.358   1_556  S
Zr140       O152   2.363       .  S
Zr140       O150   2.361       .  S
O141        H161   0.990       .  S
O141        H166   0.990       .  S
O142        H162   0.990       .  S
Zr143       O144   2.434       .  S
Zr143       O145   2.433       .  S
Zr143       O149   2.362       .  S
Zr143       O148   2.355       .  S
Zr143       O153   2.353       .  S
Zr143       O151   2.362       .  S
O144        H160   0.990       .  S
O145        H159   0.990       .  S
O145        H169   0.990       .  S
Zr146       O149   2.387       .  S
Zr146       O151   2.404       .  S
Zr146       O152   2.402   1_554  S
Zr147       O148   2.386   1_556  S
Zr147       O150   2.404       .  S
Zr147       O153   2.405   1_556  S
O148        H156   0.965       .  S
O151        H155   0.966       .  S
O152        H157   0.966       .  S
C170        C242   1.480       .  S
C170        C175   1.400       .  A
C170        C675   1.396       .  A
C171        C172   1.399       .  A
C171        C674   1.396   1_455  A
C171        H176   1.085       .  S
C172        C677   1.406   1_455  A
C173        C174   1.405       .  A
C173        C676   1.406       .  A
C173        H177   1.077       .  S
C174        C175   1.406       .  A
C175        H178   1.084       .  S
C179        C211   1.491       .  S
C179        C180   1.402       .  A
C179        C436   1.402   1_545  A
C180        C181   1.405       .  A
C180        H185   1.085       .  S
C181        C182   1.408       .  A
C182        C435   1.409   1_545  A
C182        H186   1.074       .  S
C183        C184   1.403       .  A
C183        C434   1.409       .  A
C184        C431   1.402       .  A
C184        H187   1.085       .  S
C188        C200   1.503       .  S
C188        C193   1.408       .  A
C188        C693   1.406       .  A
C189        C190   1.400       .  A
C189        C692   1.406   1_455  A
C189        H194   1.084       .  S
C190        C695   1.407   1_455  A
C191        C192   1.406       .  A
C191        C694   1.407       .  A
C191        H195   1.077       .  S
C192        C193   1.407       .  A
C193        H196   1.083       .  S
C197        C198   1.411       .  A
C197        C706   1.411       .  A
C198        C199   1.412       .  A
C198        C203   1.451       .  S
C199        C200   1.417       .  A
C199        C206   1.446       .  S
C200        C705   1.417       .  A
C201        C202   1.407       .  A
C201        C704   1.417   1_455  A
C201        C204   1.447       .  S
C202        C701   1.411   1_455  A
C202        C205   1.452       .  S
C203        N210   1.157       .  T
C204        N209   1.155       .  T
C205        N207   1.157       .  T
C206        N208   1.155       .  T
C211        C216   1.410       .  A
C211        C464   1.408   1_545  A
C212        C213   1.408       .  A
C212        C463   1.408       .  A
C212        C217   1.450       .  S
C213        C466   1.423       .  A
C213        C220   1.452       .  S
C214        C215   1.421       .  A
C214        C465   1.423   1_545  A
C215        C216   1.414       .  A
C215        C218   1.449       .  S
C216        C219   1.450       .  S
C217        N224   1.156       .  T
C218        N223   1.157       .  T
C219        N221   1.156       .  T
C220        N222   1.157       .  T
C225        C230   1.415       .  A
C225        C478   1.417   1_545  A
C226        C227   1.409       .  A
C226        C477   1.417       .  A
C226        C231   1.452       .  S
C227        C480   1.414       .  A
C227        C234   1.450       .  S
C228        C229   1.416       .  A
C228        C479   1.414   1_545  A
C229        C230   1.413       .  A
C229        C232   1.449       .  S
C230        C233   1.450       .  S
C231        N238   1.157       .  T
C232        N237   1.156       .  T
C233        N235   1.157       .  T
C234        N236   1.157       .  T
C239        C244   1.428       .  A
C239        C744   1.429       .  A
C240        C241   1.409       .  A
C240        C743   1.429   1_455  A
C240        C245   1.451       .  S
C241        C746   1.403   1_455  A
C241        C248   1.453       .  S
C242        C243   1.404       .  A
C242        C745   1.403       .  A
C243        C244   1.411       .  A
C243        C246   1.451       .  S
C244        C247   1.449       .  S
C245        N252   1.157       .  T
C246        N251   1.157       .  T
C247        N249   1.157       .  T
C248        N250   1.157       .  T
O253       Zr265   2.391       .  S
O254       Zr291   2.485       .  S
O254        C255   1.299       .  A
C255        C326   1.474       .  S
O256       Zr268   2.404       .  S
O256        C762   1.280       .  A
O257       Zr292   2.460       .  S
O257        C258   1.294       .  A
C258        O760   1.280   1_455  A
C258        C850   1.466       .  S
O259       Zr268   2.390       .  S
O260       Zr291   2.492       .  S
O260        C261   1.300       .  A
C261        C335   1.476       .  S
O262       Zr265   2.377       .  S
O262        C768   1.276       .  A
O263       Zr292   2.476       .  S
O263        C264   1.298       .  A
C264        O766   1.276   1_455  A
C264        C823   1.463       .  S
Zr265       O266   2.434       .  S
Zr265       O267   2.436       .  S
Zr265       O271   2.350       .  S
Zr265       O272   2.358       .  S
Zr265       O799   2.362       .  S
O266        H309   0.990       .  S
O267        H308   0.990       .  S
O267        H312   0.990       .  S
Zr268       O269   2.439       .  S
Zr268       O270   2.435       .  S
Zr268       O272   2.352       .  S
Zr268       O271   2.359       .  S
Zr268       O802   2.356       .  S
O269        H310   0.990       .  S
O269        H313   0.990       .  S
O270        H303   0.990       .  S
O272       Zr796   2.397       .  S
O272        H299   0.965       .  S
O273       Zr285   2.404       .  S
O274       Zr292   2.470       .  S
O274        C275   1.290       .  A
O276       Zr288   2.398       .  S
O276        C782   1.279   1_455  A
O277       Zr291   2.473       .  S
O277        C278   1.297       .  A
C278        O780   1.279       .  A
C278        C344   1.470       .  S
O279       Zr288   2.404       .  S
O280       Zr292   2.473       .  S
O280        C281   1.291       .  A
O282       Zr285   2.372       .  S
O282        C788   1.275   1_455  A
O283       Zr291   2.490       .  S
O283        C284   1.301       .  A
C284        O786   1.275       .  A
C284        C317   1.467       .  S
Zr285       O286   2.440       .  S
Zr285       O287   2.435       .  S
Zr285       O293   2.355       .  S
Zr285       O294   2.366       .  S
Zr285       O801   2.372   1_455  S
O286        H306   0.989       .  S
O286        H311   0.990       .  S
O287        H307   0.990       .  S
Zr288       O289   2.435       .  S
Zr288       O290   2.435       .  S
Zr288       O294   2.359       .  S
Zr288       O293   2.363       .  S
Zr288       O800   2.368   1_455  S
O289        H305   0.990       .  S
O290        H304   0.990       .  S
O290        H314   0.990       .  S
Zr291       O798   2.384       .  S
Zr291       O296   2.405       .  S
Zr291       O297   2.401       .  S
Zr292       O776   2.397   1_455  S
Zr292       O295   2.399       .  S
Zr292       O298   2.404       .  S
O293        H301   0.965       .  S
O294       Zr795   2.384   1_455  S
O295       Zr769   2.362   1_455  S
O296       Zr792   2.368       .  S
O296        H300   0.966       .  S
O297       Zr789   2.372       .  S
O297        H302   0.966       .  S
O298       Zr772   2.356   1_455  S
C315        C491   1.516       .  S
C315        C316   1.409       .  A
C315        C320   1.405       .  A
C316        C317   1.408       .  A
C316        H321   1.081       .  S
C317        C822   1.400       .  A
C318        C821   1.400   1_455  A
C318        C823   1.400       .  A
C318        H322   1.079       .  S
C319        C768   1.463       .  S
C319        C822   1.400       .  A
C319        C320   1.403       .  A
C320        H323   1.082       .  S
C324        C477   1.499       .  S
C324        C325   1.404       .  A
C324        C329   1.400       .  A
C325        C326   1.407       .  A
C325        H330   1.084       .  S
C326        C327   1.413       .  A
C327        C328   1.411       .  A
C327        H331   1.080       .  S
C328        C329   1.403       .  A
C329        H332   1.084       .  S
C333        C466   1.508       .  S
C333        C334   1.406       .  A
C333        C338   1.402       .  A
C334        C335   1.408       .  A
C334        H339   1.083       .  S
C335        C336   1.412       .  A
C336        C337   1.411       .  A
C336        H340   1.080       .  S
C337        C338   1.405       .  A
C338        H341   1.083       .  S
C342        C449   1.488       .  S
C342        C343   1.402       .  A
C342        C347   1.398       .  A
C343        C344   1.405       .  A
C343        H348   1.084       .  S
C344        C345   1.407       .  A
C345        C346   1.406       .  A
C345        H349   1.079       .  S
C346        C762   1.466       .  S
C346        C347   1.399       .  A
C347        H350   1.085       .  S
C351        C480   1.499       .  S
C351        C356   1.405       .  A
C352        C353   1.403       .  A
C352        H357   1.084       .  S
C353        C368   1.476       .  S
C354        C355   1.409       .  A
C354        H358   1.074       .  S
C355        C388   1.478       .  S
C355        C356   1.405       .  A
C356        H359   1.084       .  S
O360       Zr372   2.392       .  S
O360        C362   1.277       .  A
O361       Zr398   2.485   1_556  S
O361        C362   1.299       .  A
C362        C435   1.472       .  S
O363       Zr375   2.384       .  S
O363        C365   1.276       .  A
O364       Zr399   2.470   1_554  S
O364        C365   1.296       .  A
C365        C424   1.459       .  S
O366       Zr375   2.396       .  S
O366        C368   1.279       .  A
O367       Zr398   2.487       .  S
O367        C368   1.299       .  A
O369       Zr372   2.398       .  S
O369        C371   1.279       .  A
O370       Zr399   2.478       .  S
O370        C371   1.297       .  A
C371        C442   1.470       .  S
Zr372       O373   2.434       .  S
Zr372       O374   2.435       .  S
Zr372       O378   2.356       .  S
Zr372       O379   2.356       .  S
Zr372       O402   2.365       .  S
Zr372       O404   2.363       .  S
O373        H416   0.990       .  S
O374        H415   0.987       .  S
O374        H419   0.989       .  S
Zr375       O376   2.439       .  S
Zr375       O377   2.434       .  S
Zr375       O379   2.359   1_554  S
Zr375       O378   2.354   1_554  S
Zr375       O403   2.359       .  S
Zr375       O405   2.369       .  S
O376        H417   0.990       .  S
O376        H420   0.990       .  S
O377        H410   0.990       .  S
O378       Zr398   2.384   1_556  S
O379       Zr399   2.402       .  S
O379        H406   0.965       .  S
O380       Zr392   2.388       .  S
O380        C382   1.276       .  A
O381       Zr399   2.488       .  S
O381        C382   1.299       .  A
C382        C433   1.473       .  S
O383       Zr395   2.370       .  S
O383        C385   1.274       .  A
O384       Zr398   2.485       .  S
O384        C385   1.299       .  A
C385        C426   1.466       .  S
O386       Zr395   2.393       .  S
O386        C388   1.278       .  A
O387       Zr399   2.493   1_554  S
O387        C388   1.300       .  A
O389       Zr392   2.382       .  S
O389        C391   1.277       .  A
O390       Zr398   2.491   1_556  S
O390        C391   1.300       .  A
C391        C444   1.473       .  S
Zr392       O393   2.437       .  S
Zr392       O394   2.430       .  S
Zr392       O400   2.355   1_556  S
Zr392       O401   2.358   1_556  S
Zr392       O404   2.363       .  S
Zr392       O402   2.361       .  S
O393        H413   0.990       .  S
O393        H418   0.990       .  S
O394        H414   0.990       .  S
Zr395       O396   2.434       .  S
Zr395       O397   2.433       .  S
Zr395       O401   2.362       .  S
Zr395       O400   2.355       .  S
Zr395       O405   2.353       .  S
Zr395       O403   2.362       .  S
O396        H412   0.990       .  S
O397        H411   0.990       .  S
O397        H421   0.990       .  S
Zr398       O401   2.387       .  S
Zr398       O403   2.404       .  S
Zr398       O404   2.402   1_554  S
Zr399       O400   2.386   1_556  S
Zr399       O402   2.404       .  S
Zr399       O405   2.405   1_556  S
O400        H408   0.965       .  S
O403        H407   0.966       .  S
O404        H409   0.966       .  S
C422        C494   1.480       .  S
C422        C927   1.396       .  A
C422        C427   1.400       .  A
C423        C926   1.396   1_455  A
C423        C424   1.399       .  A
C423        H428   1.085       .  S
C424        C929   1.406   1_455  A
C425        C928   1.406       .  A
C425        C426   1.405       .  A
C425        H429   1.077       .  S
C426        C427   1.406       .  A
C427        H430   1.084       .  S
C431        C463   1.491       .  S
C431        C432   1.402       .  A
C432        C433   1.405       .  A
C432        H437   1.085       .  S
C433        C434   1.408       .  A
C434        H438   1.074       .  S
C435        C436   1.403       .  A
C436        H439   1.085       .  S
C440        C452   1.503       .  S
C440        C945   1.406       .  A
C440        C445   1.408       .  A
C441        C944   1.406   1_455  A
C441        C442   1.400       .  A
C441        H446   1.084       .  S
C442        C947   1.407   1_455  A
C443        C946   1.407       .  A
C443        C444   1.406       .  A
C443        H447   1.077       .  S
C444        C445   1.407       .  A
C445        H448   1.083       .  S
C449        C450   1.411       .  A
C449        C958   1.411       .  A
C450        C451   1.412       .  A
C450        C455   1.451       .  S
C451        C452   1.417       .  A
C451        C458   1.446       .  S
C452        C957   1.417       .  A
C453        C956   1.417   1_455  A
C453        C454   1.407       .  A
C453        C456   1.447       .  S
C454        C953   1.411   1_455  A
C454        C457   1.452       .  S
C455        N462   1.157       .  T
C456        N461   1.155       .  T
C457        N459   1.157       .  T
C458        N460   1.155       .  T
C463        C468   1.410       .  A
C464        C465   1.408       .  A
C464        C469   1.450       .  S
C465        C472   1.452       .  S
C466        C467   1.421       .  A
C467        C468   1.414       .  A
C467        C470   1.449       .  S
C468        C471   1.450       .  S
C469        N476   1.156       .  T
C470        N475   1.157       .  T
C471        N473   1.156       .  T
C472        N474   1.157       .  T
C477        C482   1.415       .  A
C478        C479   1.409       .  A
C478        C483   1.452       .  S
C479        C486   1.450       .  S
C480        C481   1.416       .  A
C481        C482   1.413       .  A
C481        C484   1.449       .  S
C482        C485   1.450       .  S
C483        N490   1.157       .  T
C484        N489   1.156       .  T
C485        N487   1.157       .  T
C486        N488   1.157       .  T
C491        C996   1.429       .  A
C491        C496   1.428       .  A
C492        C995   1.429   1_455  A
C492        C493   1.409       .  A
C492        C497   1.451       .  S
C493        C998   1.403   1_455  A
C493        C500   1.453       .  S
C494        C997   1.403       .  A
C494        C495   1.404       .  A
C495        C496   1.411       .  A
C495        C498   1.451       .  S
C496        C499   1.449       .  S
C497        N504   1.157       .  T
C498        N503   1.157       .  T
C499        N501   1.157       .  T
C500        N502   1.157       .  T
O505       Zr517   2.391       .  S
O505        C759   1.277       .  A
O506       Zr543   2.485       .  S
O506        C507   1.299       .  A
C507        O757   1.277   1_545  A
C507        C578   1.474       .  S
O508       Zr520   2.404       .  S
O509       Zr544   2.460       .  S
O509        C510   1.294       .  A
O511       Zr520   2.390       .  S
O511        C765   1.277       .  A
O512       Zr543   2.492       .  S
O512        C513   1.300       .  A
C513        O763   1.277   1_545  A
C513        C587   1.476       .  S
O514       Zr517   2.377       .  S
O515       Zr544   2.476       .  S
O515        C516   1.298       .  A
Zr517       O518   2.434       .  S
Zr517       O519   2.436       .  S
Zr517       O523   2.350       .  S
Zr517       O524   2.358       .  S
Zr517       O801   2.358       .  S
O518        H561   0.990       .  S
O519        H560   0.990       .  S
O519        H564   0.990       .  S
Zr520       O521   2.439       .  S
Zr520       O522   2.435       .  S
Zr520       O524   2.352       .  S
Zr520       O523   2.359       .  S
Zr520       O800   2.366       .  S
O521        H562   0.990       .  S
O521        H565   0.990       .  S
O522        H555   0.990       .  S
O523       Zr795   2.379       .  S
O524        H551   0.965       .  S
O525       Zr537   2.404       .  S
O525        C779   1.276   1_545  A
O526       Zr544   2.470       .  S
O526        C527   1.290       .  A
C527        O777   1.276       .  A
C527        C832   1.484       .  S
O528       Zr540   2.398       .  S
O529       Zr543   2.473       .  S
O529        C530   1.297       .  A
C530        C596   1.470       .  S
O531       Zr540   2.404       .  S
O531        C785   1.275   1_545  A
O532       Zr544   2.473       .  S
O532        C533   1.291       .  A
C533        O783   1.275       .  A
C533        C841   1.486       .  S
O534       Zr537   2.372       .  S
O535       Zr543   2.490       .  S
O535        C536   1.301       .  A
C536        C569   1.467       .  S
Zr537       O538   2.440       .  S
Zr537       O539   2.435       .  S
Zr537       O545   2.355       .  S
Zr537       O546   2.366       .  S
Zr537       O799   2.359   1_545  S
O538        H558   0.989       .  S
O538        H563   0.990       .  S
O539        H559   0.990       .  S
Zr540       O541   2.435       .  S
Zr540       O542   2.435       .  S
Zr540       O546   2.359       .  S
Zr540       O545   2.363       .  S
Zr540       O802   2.367   1_545  S
O541        H557   0.990       .  S
O542        H556   0.990       .  S
O542        H566   0.990       .  S
Zr543       O775   2.379   1_545  S
Zr543       O548   2.405       .  S
Zr543       O549   2.401       .  S
Zr544       O797   2.405       .  S
Zr544       O547   2.399       .  S
Zr544       O550   2.404       .  S
O545       Zr796   2.405   1_545  S
O545        H553   0.965       .  S
O547       Zr789   2.359       .  S
O548       Zr772   2.366   1_545  S
O548        H552   0.966       .  S
O549       Zr769   2.358   1_545  S
O549        H554   0.966       .  S
O550       Zr792   2.367       .  S
C567        C743   1.516       .  S
C567        C568   1.409       .  A
C567        C572   1.405   1_655  A
C568        C569   1.408       .  A
C568        H573   1.081       .  S
C570        H574   1.079       .  S
C571        C572   1.403       .  A
C572        H575   1.082       .  S
C576        C729   1.499       .  S
C576        C577   1.404       .  A
C576        C581   1.400       .  A
C577        C578   1.407       .  A
C577        H582   1.084       .  S
C578        C579   1.413       .  A
C579        C580   1.411   1_545  A
C579        H583   1.080       .  S
C580        C779   1.484       .  S
C580        C581   1.403   1_565  A
C581        H584   1.084   1_545  S
C585        C718   1.508       .  S
C585        C586   1.406       .  A
C585        C590   1.402       .  A
C586        C587   1.408       .  A
C586        H591   1.083       .  S
C587        C588   1.412       .  A
C588        C589   1.411   1_545  A
C588        H592   1.080       .  S
C589        C785   1.486       .  S
C589        C590   1.405   1_565  A
C590        H593   1.083       .  S
C594        C701   1.488       .  S
C594        C595   1.402       .  A
C594        C599   1.398   1_655  A
C595        C596   1.405       .  A
C595        H600   1.084       .  S
C596        C597   1.407   1_655  A
C597        C598   1.406       .  A
C597        H601   1.079       .  S
C598        C599   1.399       .  A
C599        H602   1.085       .  S
C603        C732   1.499       .  S
C603        C856   1.406   1_545  A
C603        C608   1.405       .  A
C604        C855   1.406       .  A
C604        C605   1.403       .  A
C604        H609   1.084       .  S
C605        C620   1.476       .  S
C605        C858   1.410       .  A
C606        C857   1.410   1_545  A
C606        C607   1.409       .  A
C606        H610   1.074       .  S
C607        C640   1.478       .  S
C607        C608   1.405       .  A
C608        H611   1.084       .  S
O612       Zr624   2.392       .  S
O612        C614   1.277       .  A
O613       Zr650   2.485   1_556  S
O613        C614   1.299       .  A
C614        C687   1.472       .  S
O615       Zr627   2.384       .  S
O615        C617   1.276       .  A
O616       Zr651   2.470   1_554  S
O616        C617   1.296       .  A
C617        C676   1.459       .  S
O618       Zr627   2.396       .  S
O618        C620   1.279       .  A
O619       Zr650   2.487       .  S
O619        C620   1.299       .  A
O621       Zr624   2.398       .  S
O621        C623   1.279       .  A
O622       Zr651   2.478       .  S
O622        C623   1.297       .  A
C623        C694   1.470       .  S
Zr624       O625   2.434       .  S
Zr624       O626   2.435       .  S
Zr624       O630   2.356       .  S
Zr624       O631   2.356       .  S
Zr624       O654   2.365       .  S
Zr624       O656   2.363       .  S
O625        H668   0.990       .  S
O626        H667   0.987       .  S
O626        H671   0.989       .  S
Zr627       O628   2.439       .  S
Zr627       O629   2.434       .  S
Zr627       O631   2.359   1_554  S
Zr627       O630   2.354   1_554  S
Zr627       O655   2.359       .  S
Zr627       O657   2.369       .  S
O628        H669   0.990       .  S
O628        H672   0.990       .  S
O629        H662   0.990       .  S
O630       Zr650   2.384   1_556  S
O631       Zr651   2.402       .  S
O631        H658   0.965       .  S
O632       Zr644   2.388       .  S
O632        C634   1.276       .  A
O633       Zr651   2.488       .  S
O633        C634   1.299       .  A
C634        C685   1.473       .  S
O635       Zr647   2.370       .  S
O635        C637   1.274       .  A
O636       Zr650   2.485       .  S
O636        C637   1.299       .  A
C637        C678   1.466       .  S
O638       Zr647   2.393       .  S
O638        C640   1.278       .  A
O639       Zr651   2.493   1_554  S
O639        C640   1.300       .  A
O641       Zr644   2.382       .  S
O641        C643   1.277       .  A
O642       Zr650   2.491   1_556  S
O642        C643   1.300       .  A
C643        C696   1.473       .  S
Zr644       O645   2.437       .  S
Zr644       O646   2.430       .  S
Zr644       O652   2.355   1_556  S
Zr644       O653   2.358   1_556  S
Zr644       O656   2.363       .  S
Zr644       O654   2.361       .  S
O645        H665   0.990       .  S
O645        H670   0.990       .  S
O646        H666   0.990       .  S
Zr647       O648   2.434       .  S
Zr647       O649   2.433       .  S
Zr647       O653   2.362       .  S
Zr647       O652   2.355       .  S
Zr647       O657   2.353       .  S
Zr647       O655   2.362       .  S
O648        H664   0.990       .  S
O649        H663   0.990       .  S
O649        H673   0.990       .  S
Zr650       O653   2.387       .  S
Zr650       O655   2.404       .  S
Zr650       O656   2.402   1_554  S
Zr651       O652   2.386   1_556  S
Zr651       O654   2.404       .  S
Zr651       O657   2.405   1_556  S
O652        H660   0.965       .  S
O655        H659   0.966       .  S
O656        H661   0.966       .  S
C674        C746   1.480       .  S
C674        C679   1.400       .  A
C675        C676   1.399       .  A
C675        H680   1.085       .  S
C677        C678   1.405       .  A
C677        H681   1.077       .  S
C678        C679   1.406       .  A
C679        H682   1.084       .  S
C683        C715   1.491       .  S
C683        C684   1.402       .  A
C683        C940   1.402   1_545  A
C684        C685   1.405       .  A
C684        H689   1.085       .  S
C685        C686   1.408       .  A
C686        C939   1.409   1_545  A
C686        H690   1.074       .  S
C687        C938   1.409       .  A
C687        C688   1.403       .  A
C688        C935   1.402       .  A
C688        H691   1.085       .  S
C692        C704   1.503       .  S
C692        C697   1.408       .  A
C693        C694   1.400       .  A
C693        H698   1.084       .  S
C695        C696   1.406       .  A
C695        H699   1.077       .  S
C696        C697   1.407       .  A
C697        H700   1.083       .  S
C701        C702   1.411       .  A
C702        C703   1.412       .  A
C702        C707   1.451       .  S
C703        C704   1.417       .  A
C703        C710   1.446       .  S
C705        C706   1.407       .  A
C705        C708   1.447       .  S
C706        C709   1.452       .  S
C707        N714   1.157       .  T
C708        N713   1.155       .  T
C709        N711   1.157       .  T
C710        N712   1.155       .  T
C715        C968   1.408   1_545  A
C715        C720   1.410       .  A
C716        C967   1.408       .  A
C716        C717   1.408       .  A
C716        C721   1.450       .  S
C717        C970   1.423       .  A
C717        C724   1.452       .  S
C718        C969   1.423   1_545  A
C718        C719   1.421       .  A
C719        C720   1.414       .  A
C719        C722   1.449       .  S
C720        C723   1.450       .  S
C721        N728   1.156       .  T
C722        N727   1.157       .  T
C723        N725   1.156       .  T
C724        N726   1.157       .  T
C729        C982   1.417   1_545  A
C729        C734   1.415       .  A
C730        C981   1.417       .  A
C730        C731   1.409       .  A
C730        C735   1.452       .  S
C731        C984   1.414       .  A
C731        C738   1.450       .  S
C732        C983   1.414   1_545  A
C732        C733   1.416       .  A
C733        C734   1.413       .  A
C733        C736   1.449       .  S
C734        C737   1.450       .  S
C735        N742   1.157       .  T
C736        N741   1.156       .  T
C737        N739   1.157       .  T
C738        N740   1.157       .  T
C743        C748   1.428       .  A
C744        C745   1.409       .  A
C744        C749   1.451       .  S
C745        C752   1.453       .  S
C746        C747   1.404       .  A
C747        C748   1.411       .  A
C747        C750   1.451       .  S
C748        C751   1.449       .  S
C749        N756   1.157       .  T
C750        N755   1.157       .  T
C751        N753   1.157       .  T
C752        N754   1.157       .  T
O757       Zr769   2.391       .  S
O758       Zr795   2.485       .  S
O758        C759   1.299       .  A
C759        C830   1.474       .  S
O760       Zr772   2.404       .  S
O761       Zr796   2.460       .  S
O761        C762   1.294       .  A
O763       Zr772   2.390       .  S
O764       Zr795   2.492       .  S
O764        C765   1.300       .  A
C765        C839   1.476       .  S
O766       Zr769   2.377       .  S
O767       Zr796   2.476       .  S
O767        C768   1.298       .  A
Zr769       O770   2.434       .  S
Zr769       O771   2.436       .  S
Zr769       O775   2.350       .  S
Zr769       O776   2.358       .  S
O770        H813   0.990       .  S
O771        H812   0.990       .  S
O771        H816   0.990       .  S
Zr772       O773   2.439       .  S
Zr772       O774   2.435       .  S
Zr772       O776   2.352       .  S
Zr772       O775   2.359       .  S
O773        H814   0.990       .  S
O773        H817   0.990       .  S
O774        H807   0.990       .  S
O776        H803   0.965       .  S
O777       Zr789   2.404       .  S
O778       Zr796   2.470       .  S
O778        C779   1.290       .  A
O780       Zr792   2.398       .  S
O781       Zr795   2.473       .  S
O781        C782   1.297       .  A
C782        C848   1.470       .  S
O783       Zr792   2.404       .  S
O784       Zr796   2.473       .  S
O784        C785   1.291       .  A
O786       Zr789   2.372       .  S
O787       Zr795   2.490       .  S
O787        C788   1.301       .  A
C788        C821   1.467       .  S
Zr789       O790   2.440       .  S
Zr789       O791   2.435       .  S
Zr789       O797   2.355       .  S
Zr789       O798   2.366       .  S
O790        H810   0.989       .  S
O790        H815   0.990       .  S
O791        H811   0.990       .  S
Zr792       O793   2.435       .  S
Zr792       O794   2.435       .  S
Zr792       O798   2.359       .  S
Zr792       O797   2.363       .  S
O793        H809   0.990       .  S
O794        H808   0.990       .  S
O794        H818   0.990       .  S
Zr795       O800   2.405       .  S
Zr795       O801   2.401       .  S
Zr796       O799   2.399       .  S
Zr796       O802   2.404       .  S
O797        H805   0.965       .  S
O800        H804   0.966       .  S
O801        H806   0.966       .  S
C819        C995   1.516       .  S
C819        C820   1.409       .  A
C819        C824   1.405   1_655  A
C820        C821   1.408       .  A
C820        H825   1.081       .  S
C822        H826   1.079       .  S
C823        C824   1.403       .  A
C824        H827   1.082       .  S
C828        C981   1.499       .  S
C828        C829   1.404       .  A
C828        C833   1.400       .  A
C829        C830   1.407       .  A
C829        H834   1.084       .  S
C830        C831   1.413       .  A
C831        C832   1.411       .  A
C831        H835   1.080       .  S
C832        C833   1.403       .  A
C833        H836   1.084       .  S
C837        C970   1.508       .  S
C837        C838   1.406       .  A
C837        C842   1.402       .  A
C838        C839   1.408       .  A
C838        H843   1.083       .  S
C839        C840   1.412       .  A
C840        C841   1.411       .  A
C840        H844   1.080       .  S
C841        C842   1.405       .  A
C842        H845   1.083       .  S
C846        C953   1.488       .  S
C846        C847   1.402       .  A
C846        C851   1.398   1_655  A
C847        C848   1.405       .  A
C847        H852   1.084       .  S
C848        C849   1.407   1_655  A
C849        C850   1.406       .  A
C849        H853   1.079       .  S
C850        C851   1.399       .  A
C851        H854   1.085       .  S
C855        C984   1.499       .  S
C855        C860   1.405       .  A
C856        C857   1.403       .  A
C856        H861   1.084       .  S
C857        C872   1.476       .  S
C858        C859   1.409       .  A
C858        H862   1.074       .  S
C859        C892   1.478       .  S
C859        C860   1.405       .  A
C860        H863   1.084       .  S
O864       Zr876   2.392       .  S
O864        C866   1.277       .  A
O865       Zr902   2.485   1_556  S
O865        C866   1.299       .  A
C866        C939   1.472       .  S
O867       Zr879   2.384       .  S
O867        C869   1.276       .  A
O868       Zr903   2.470   1_554  S
O868        C869   1.296       .  A
C869        C928   1.459       .  S
O870       Zr879   2.396       .  S
O870        C872   1.279       .  A
O871       Zr902   2.487       .  S
O871        C872   1.299       .  A
O873       Zr876   2.398       .  S
O873        C875   1.279       .  A
O874       Zr903   2.478       .  S
O874        C875   1.297       .  A
C875        C946   1.470       .  S
Zr876       O877   2.434       .  S
Zr876       O878   2.435       .  S
Zr876       O882   2.356       .  S
Zr876       O883   2.356       .  S
Zr876       O906   2.365       .  S
Zr876       O908   2.363       .  S
O877        H920   0.990       .  S
O878        H919   0.987       .  S
O878        H923   0.989       .  S
Zr879       O880   2.439       .  S
Zr879       O881   2.434       .  S
Zr879       O883   2.359   1_554  S
Zr879       O882   2.354   1_554  S
Zr879       O907   2.359       .  S
Zr879       O909   2.369       .  S
O880        H921   0.990       .  S
O880        H924   0.990       .  S
O881        H914   0.990       .  S
O882       Zr902   2.384   1_556  S
O883       Zr903   2.402       .  S
O883        H910   0.965       .  S
O884       Zr896   2.388       .  S
O884        C886   1.276       .  A
O885       Zr903   2.488       .  S
O885        C886   1.299       .  A
C886        C937   1.473       .  S
O887       Zr899   2.370       .  S
O887        C889   1.274       .  A
O888       Zr902   2.485       .  S
O888        C889   1.299       .  A
C889        C930   1.466       .  S
O890       Zr899   2.393       .  S
O890        C892   1.278       .  A
O891       Zr903   2.493   1_554  S
O891        C892   1.300       .  A
O893       Zr896   2.382       .  S
O893        C895   1.277       .  A
O894       Zr902   2.491   1_556  S
O894        C895   1.300       .  A
C895        C948   1.473       .  S
Zr896       O897   2.437       .  S
Zr896       O898   2.430       .  S
Zr896       O904   2.355   1_556  S
Zr896       O905   2.358   1_556  S
Zr896       O908   2.363       .  S
Zr896       O906   2.361       .  S
O897        H917   0.990       .  S
O897        H922   0.990       .  S
O898        H918   0.990       .  S
Zr899       O900   2.434       .  S
Zr899       O901   2.433       .  S
Zr899       O905   2.362       .  S
Zr899       O904   2.355       .  S
Zr899       O909   2.353       .  S
Zr899       O907   2.362       .  S
O900        H916   0.990       .  S
O901        H915   0.990       .  S
O901        H925   0.990       .  S
Zr902       O905   2.387       .  S
Zr902       O907   2.404       .  S
Zr902       O908   2.402   1_554  S
Zr903       O904   2.386   1_556  S
Zr903       O906   2.404       .  S
Zr903       O909   2.405   1_556  S
O904        H912   0.965       .  S
O907        H911   0.966       .  S
O908        H913   0.966       .  S
C926        C998   1.480       .  S
C926        C931   1.400       .  A
C927        C928   1.399       .  A
C927        H932   1.085       .  S
C929        C930   1.405       .  A
C929        H933   1.077       .  S
C930        C931   1.406       .  A
C931        H934   1.084       .  S
C935        C967   1.491       .  S
C935        C936   1.402       .  A
C936        C937   1.405       .  A
C936        H941   1.085       .  S
C937        C938   1.408       .  A
C938        H942   1.074       .  S
C939        C940   1.403       .  A
C940        H943   1.085       .  S
C944        C956   1.503       .  S
C944        C949   1.408       .  A
C945        C946   1.400       .  A
C945        H950   1.084       .  S
C947        C948   1.406       .  A
C947        H951   1.077       .  S
C948        C949   1.407       .  A
C949        H952   1.083       .  S
C953        C954   1.411       .  A
C954        C955   1.412       .  A
C954        C959   1.451       .  S
C955        C956   1.417       .  A
C955        C962   1.446       .  S
C957        C958   1.407       .  A
C957        C960   1.447       .  S
C958        C961   1.452       .  S
C959        N966   1.157       .  T
C960        N965   1.155       .  T
C961        N963   1.157       .  T
C962        N964   1.155       .  T
C967        C972   1.410       .  A
C968        C969   1.408       .  A
C968        C973   1.450       .  S
C969        C976   1.452       .  S
C970        C971   1.421       .  A
C971        C972   1.414       .  A
C971        C974   1.449       .  S
C972        C975   1.450       .  S
C973        N980   1.156       .  T
C974        N979   1.157       .  T
C975        N977   1.156       .  T
C976        N978   1.157       .  T
C981        C986   1.415       .  A
C982        C983   1.409       .  A
C982        C987   1.452       .  S
C983        C990   1.450       .  S
C984        C985   1.416       .  A
C985        C986   1.413       .  A
C985        C988   1.449       .  S
C986        C989   1.450       .  S
C987        N994   1.157       .  T
C988        N993   1.156       .  T
C989        N991   1.157       .  T
C990        N992   1.157       .  T
C995       C1000   1.428       .  A
C996        C997   1.409       .  A
C996       C1001   1.451       .  S
C997       C1004   1.453       .  S
C998        C999   1.404       .  A
C999       C1000   1.411       .  A
C999       C1002   1.451       .  S
C1000      C1003   1.449       .  S
C1001      N1008   1.157       .  T
C1002      N1007   1.157       .  T
C1003      N1005   1.157       .  T
C1004      N1006   1.157       .  T
