geometry optimzed in LAMMPS
_audit_creation_date              2020-11-30 
_audit_creation_method            'lammps2cif' 
_symmetry_space_group_name_H-M    'P1' 
_symmetry_Int_Tables_number       1 
_symmetry_cell_setting            triclinic 
loop_ 
_symmetry_equiv_pos_as_xyz 
  x,y,z 
_cell_length_a                    39.7334254 
_cell_length_b                    39.72677253608175 
_cell_length_c                    39.77598041792831 
_cell_angle_alpha                 89.9321943584043 
_cell_angle_beta                  90.0624955846377 
_cell_angle_gamma                 89.9855347193783 
loop_ 
_atom_site_label 
_atom_site_type_symbol 
_atom_site_fract_x 
_atom_site_fract_y 
_atom_site_fract_z 
_atom_site_charge 
N1          N  0.00156908  0.25411937  0.19969447    -0.36900
N2          N  0.00395496  0.20007411  0.24872936    -0.57500
N3          N  0.00152371  0.24926625  0.30243529    -0.36900
N4          N  0.99640178  0.30310095  0.25346916    -0.57500
C5          C  0.99544342  0.22727806  0.17968720     0.26700
C6          C  0.99336940  0.28206875  0.18205028     0.26700
C7          C  0.99561530  0.22033619  0.31934838     0.26600
C8          C  0.99046563  0.27486129  0.32192198     0.26600
C9          C  0.01118181  0.18261691  0.22052422     0.35300
C10         C  0.01297920  0.18033095  0.27490239     0.35300
C11         C  0.00236363  0.32411665  0.22741512     0.35300
C12         C  0.00086258  0.32138613  0.28174331     0.35300
C13         C  0.98330152  0.23833056  0.14889038    -0.22200
C14         C  0.98239353  0.27291183  0.15023099    -0.22200
C15         C  0.98041180  0.22759885  0.34988406    -0.22200
C16         C  0.97725674  0.26208938  0.35154471    -0.22200
C17         C  0.02491937  0.15161259  0.22876426    -0.23300
C18         C  0.02622489  0.15022645  0.26328550    -0.23300
C19         C  0.01020420  0.35599584  0.23919477    -0.23300
C20         C  0.00955416  0.35418568  0.27363059    -0.23300
C21         C  0.00297650  0.19335702  0.18763626    -0.18600
C22         C  0.99789316  0.31555864  0.19323978    -0.18600
C23         C  0.99450366  0.30944158  0.31459537    -0.18600
C24         C  0.00613961  0.18796110  0.30891426    -0.18600
H25         H  0.97649794  0.22313344  0.12736779     0.14300
H26         H  0.97481419  0.28934160  0.12988226     0.14300
H27         H  0.97292136  0.20992992  0.36920984     0.14300
H28         H  0.96685425  0.27619476  0.37235266     0.14300
H29         H  0.03277749  0.13193133  0.21168993     0.12600
H30         H  0.03519305  0.12919537  0.27811991     0.12600
H31         H  0.01538408  0.37838794  0.22458942     0.12600
H32         H  0.01430803  0.37484479  0.29069331     0.12600
H33         H  0.01437025  0.25370239  0.22247714     0.25800
H34         H  0.01618515  0.25161834  0.28090426     0.25800
O35         O  0.00406354  0.10088090  0.05144831    -0.80500
O36         O  0.99893404  0.40727691  0.05981395    -0.82000
O37         O  0.44480417  0.00634999  0.09717592    -0.79000
O38         O  0.05569238  0.00436334  0.09613466    -0.77400
O39         O  0.09477080  0.49716723  0.05713033    -0.79200
O40         O  0.40317232  0.50437299  0.05455318    -0.80100
O41         O  0.99921517  0.44945853  0.09911891    -0.81500
O42         O  0.00167755  0.06159544  0.09350749    -0.81800
Eu43       Eu  0.99862504  0.50324997  0.06902125     2.39200
O44         O  0.03211871  0.46698311  0.03633325    -0.89300
O45         O  0.46638348  0.03887207  0.03342741    -0.92900
C46         C  0.00340751  0.09222584  0.08273900     1.01800
C47         C  0.99962285  0.41823277  0.09043330     1.01600
C48         C  0.41381156  0.00502509  0.08746643     1.01600
C49         C  0.08654792  0.00215820  0.08623940     0.99400
H50         H  0.44992876  0.45558740  0.05023015     0.29200
O51         O  0.46426945  0.46889469  0.03582947    -1.01600
H52         H  0.05019641  0.05054021  0.04644740     0.29200
O53         O  0.03559545  0.03640039  0.03320352    -1.04200
O54         O  0.99784161  0.40324705  0.44840737    -0.81400
O55         O  0.00261211  0.09560159  0.44228146    -0.81000
O56         O  0.40231901  0.44794442  0.50151324    -0.79400
O57         O  0.09359441  0.44304990  0.50180790    -0.82700
O58         O  0.09694237  0.05429116  0.49764655    -0.80600
O59         O  0.40479417  0.05920697  0.49881742    -0.79200
O60         O  0.44538052  0.49781775  0.40408813    -0.80800
O61         O  0.05565992  0.49768430  0.40528647    -0.82700
O62         O  0.40416400  0.49902617  0.44435445    -0.79400
O63         O  0.09614381  0.49760031  0.44629358    -0.82100
O64         O  0.44181435  0.40613871  0.50549742    -0.77800
O65         O  0.44651414  0.09905266  0.49775314    -0.77900
O66         O  0.05693937  0.09587760  0.49560347    -0.77500
O67         O  0.05187172  0.40330783  0.50291535    -0.81000
O68         O  0.99875777  0.44286790  0.40647489    -0.80400
O69         O  0.00122832  0.05335473  0.40321149    -0.78800
Eu70       Eu  0.99765811  0.43263020  0.50274824     2.39800
Eu71       Eu  0.00071367  0.06978627  0.49831419     2.39600
Eu72       Eu  0.43147593  0.50257364  0.49976744     2.38400
Eu73       Eu  0.06779019  0.49920938  0.50131647     2.39900
Eu74       Eu  0.00014761  0.49909273  0.43227881     2.39800
O75         O  0.03374501  0.03340304  0.46547275    -0.93200
O76         O  0.46513000  0.46621534  0.46758806    -0.92100
C77         C  0.99822341  0.41218065  0.41720033     1.02000
C78         C  0.00242470  0.08470170  0.41173198     1.00700
C79         C  0.41109142  0.41676096  0.50426970     1.00100
C80         C  0.08304154  0.41233237  0.50258979     1.02100
C81         C  0.08769454  0.08535233  0.49575115     1.01000
C82         C  0.41532270  0.08995973  0.49779846     0.99900
C83         C  0.41432875  0.49772878  0.41358737     0.99900
C84         C  0.08658114  0.49756675  0.41523815     1.02600
H85         H  0.45188828  0.04893726  0.45067189     0.29900
O86         O  0.46567811  0.03521555  0.46526443    -1.05300
H87         H  0.04680204  0.45031934  0.45427517     0.32000
O88         O  0.03301472  0.46499650  0.46784084    -1.07900
N89         N  0.24940889  0.99435049  0.30213019    -0.36900
N90         N  0.19823342  0.99495217  0.25014719    -0.57500
N91         N  0.25026519  0.99477720  0.19914842    -0.36900
N92         N  0.30131909  0.99637206  0.25131309    -0.57500
C93         C  0.22167921  0.00248034  0.32005528     0.26700
C94         C  0.27650213  0.00310974  0.32078161     0.26700
C95         C  0.22280998  0.00261186  0.18055574     0.26600
C96         C  0.27761020  0.00411720  0.18118967     0.26600
C97         C  0.17892873  0.98775297  0.27715186     0.35300
C98         C  0.17932786  0.98813065  0.22274302     0.35300
C99         C  0.32067789  0.99060638  0.27865212     0.35300
C100        C  0.32124604  0.99172070  0.22424259     0.35300
C101        C  0.23124762  0.01672544  0.35041757    -0.22200
C102        C  0.26591560  0.01692496  0.35096630    -0.22200
C103        C  0.23279049  0.01681667  0.15032012    -0.22200
C104        C  0.26740108  0.01777736  0.15071861    -0.22200
C105        C  0.14769477  0.97609641  0.26685469    -0.23300
C106        C  0.14792219  0.97642197  0.23231743    -0.23300
C107        C  0.35312880  0.98232803  0.26895460    -0.23300
C108        C  0.35343940  0.98283549  0.23441770    -0.23300
C109        C  0.18821422  0.99458942  0.31076350    -0.18600
C110        C  0.31035349  0.99673087  0.31202446    -0.18600
C111        C  0.31152457  0.99890114  0.19081003    -0.18600
C112        C  0.18915222  0.99522248  0.18939581    -0.18600
H113        H  0.21494340  0.02542684  0.37038173     0.14300
H114        H  0.28152071  0.02591072  0.37138651     0.14300
H115        H  0.21680601  0.02537172  0.12998122     0.14300
H116        H  0.28324981  0.02731065  0.13074837     0.14300
H117        H  0.12672220  0.96874038  0.28256457     0.12600
H118        H  0.12719110  0.96936947  0.21611745     0.12600
H119        H  0.37456421  0.97746284  0.28505995     0.12600
H120        H  0.37514490  0.97827270  0.21865422     0.12600
H121        H  0.24983124  0.97979229  0.28040470     0.25800
H122        H  0.25041170  0.98046032  0.22106053     0.25800
N123        N  0.25054169  0.19987575  0.49365695    -0.36900
N124        N  0.30039386  0.25305016  0.50070904    -0.57500
N125        N  0.24701623  0.30237831  0.50041030    -0.36900
N126        N  0.19715563  0.24941989  0.49567253    -0.57500
C127        C  0.27828084  0.18170043  0.50145251     0.26700
C128        C  0.22348665  0.17981342  0.49879312     0.26700
C129        C  0.27342656  0.32146909  0.51015708     0.26600
C130        C  0.21871923  0.31920480  0.50884679     0.26600
C131        C  0.32086046  0.22683841  0.49364933     0.35300
C132        C  0.31885537  0.28123571  0.49605388     0.35300
C133        C  0.17894241  0.22210745  0.48700820     0.35300
C134        C  0.17706496  0.27636122  0.49076308     0.35300
C135        C  0.26877191  0.14958837  0.51131318    -0.22200
C136        C  0.23421897  0.14834060  0.50947178    -0.22200
C137        C  0.26184733  0.35074848  0.52513645    -0.22200
C138        C  0.22722141  0.34926511  0.52442889    -0.22200
C139        C  0.35251336  0.23837403  0.48468148    -0.23300
C140        C  0.35122112  0.27287523  0.48610064    -0.23300
C141        C  0.14699710  0.23169633  0.47670190    -0.23300
C142        C  0.14589581  0.26616956  0.47882086    -0.23300
C143        C  0.31198536  0.19264345  0.49770418    -0.18600
C144        C  0.18958560  0.18865198  0.49222521    -0.18600
C145        C  0.18572525  0.30962755  0.49962582    -0.18600
C146        C  0.30749649  0.31419065  0.50314504    -0.18600
H147        H  0.28505821  0.12901537  0.51868016     0.13500
H148        H  0.21883889  0.12657139  0.51505187     0.14300
H149        H  0.27679191  0.37130731  0.53491870     0.14300
H150        H  0.21023901  0.36852864  0.53349219     0.14300
H151        H  0.37434542  0.22347447  0.47813906     0.12600
H152        H  0.37188687  0.28980580  0.48081813     0.12600
H153        H  0.12641020  0.21556601  0.46911720     0.12600
H154        H  0.12435713  0.28181850  0.47300196     0.12600
H155        H  0.25034060  0.22326976  0.48195085     0.25800
H156        H  0.24826711  0.28151276  0.48469814     0.25800
C157        C  0.33266674  0.34194937  0.50413438    -0.06400
C158        C  0.35841297  0.34013940  0.02503923    -0.17600
C159        C  0.38339589  0.36484196  0.02726908     0.10700
C160        C  0.38378651  0.39144302  0.50588575    -0.06400
C161        C  0.35740472  0.39358100  0.48247365    -0.17600
C162        C  0.33239989  0.36879904  0.48075455     0.10800
S163        S  0.41365287  0.36066966  0.06070307    -0.32600
S164        S  0.30175203  0.37237575  0.44740583    -0.32600
H165        H  0.29609288  0.33770158  0.44335009     0.28800
H166        H  0.41829328  0.39542497  0.06535748     0.28800
H167        H  0.35841599  0.31948059  0.04286996     0.19400
H168        H  0.35701687  0.41402877  0.46446104     0.19400
C169        C  0.38972683  0.11682586  0.49653978    -0.06400
C170        C  0.38881609  0.14123568  0.02079663    -0.17600
C171        C  0.36327238  0.16551301  0.02145668     0.10700
C172        C  0.33920241  0.16681916  0.49808673    -0.06400
C173        C  0.34021506  0.14311495  0.47198705    -0.17600
C174        C  0.36504578  0.11817628  0.47099415     0.10800
S175        S  0.36106151  0.19281947  0.05756182    -0.32600
S176        S  0.36415423  0.08925932  0.43615809    -0.32600
H177        H  0.39916682  0.08447160  0.43439210     0.28800
H178        H  0.32572398  0.19476110  0.05833172     0.28800
H179        H  0.40670700  0.14004622  0.04136075     0.19400
H180        H  0.32149088  0.14414446  0.45217063     0.19400
C181        C  0.10874080  0.38561844  0.50247240    -0.06400
C182        C  0.13520348  0.38821057  0.47928139    -0.17600
C183        C  0.15987931  0.36328326  0.47704449     0.10700
C184        C  0.15900526  0.33570824  0.49945875    -0.06400
C185        C  0.13239895  0.33185161  0.01803129    -0.17600
C186        C  0.10688188  0.35594371  0.02031100     0.10800
S187        S  0.19147002  0.36790808  0.44478398    -0.32600
S188        S  0.07332959  0.34759305  0.04962748    -0.32600
H189        H  0.06845876  0.38133267  0.05864372     0.28800
H190        H  0.19728756  0.33334679  0.43993245     0.28800
H191        H  0.13611535  0.40937138  0.46207258     0.19400
H192        H  0.13138927  0.30980992  0.03408841     0.19400
C193        C  0.16347199  0.16196721  0.49345099    -0.06400
C194        C  0.15137220  0.14843769  0.46320398    -0.17600
C195        C  0.12696736  0.12302741  0.46323499     0.10700
C196        C  0.11440273  0.11085039  0.49410685    -0.06400
C197        C  0.12747755  0.12421250  0.02342267    -0.17600
C198        C  0.15088830  0.15045417  0.02323213     0.10800
S199        S  0.11275578  0.10727876  0.42323861    -0.32600
S200        S  0.16277066  0.16829471  0.06321753    -0.32600
H201        H  0.16929880  0.20099548  0.05147480     0.28800
H202        H  0.10864352  0.07381547  0.43395931     0.28800
H203        H  0.16105756  0.15773457  0.43948436     0.19400
H204        H  0.11781803  0.11517262  0.04719903     0.19400
C205        C  0.38843754  0.49651957  0.38718132    -0.06400
C206        C  0.37748696  0.02674213  0.37314788    -0.17600
C207        C  0.35323882  0.02752978  0.34771663     0.10700
C208        C  0.33639695  0.99756897  0.33880517    -0.06400
C209        C  0.34704216  0.46737948  0.35299604    -0.17600
C210        C  0.37225481  0.46635321  0.37764233     0.10800
S211        S  0.34456522  0.06770352  0.32834005    -0.32600
S212        S  0.38227810  0.42582199  0.39567937    -0.32600
H213        H  0.41383389  0.43399048  0.40929458     0.28800
H214        H  0.33510737  0.05542611  0.29665410     0.28800
H215        H  0.38997118  0.04984287  0.38009610     0.19400
H216        H  0.33450735  0.44426094  0.34576320     0.19400
C217        C  0.11299343  0.49687434  0.38909063    -0.06400
C218        C  0.13934569  0.47351788  0.39231804    -0.17600
C219        C  0.16370547  0.46987847  0.36714129     0.10700
C220        C  0.16153402  0.99477977  0.33712982    -0.06400
C221        C  0.13528710  0.01830442  0.33451835    -0.17600
C222        C  0.10992884  0.02023140  0.35885791     0.10800
S223        S  0.19443963  0.43683848  0.37242233    -0.32600
S224        S  0.07762279  0.05156781  0.35242647    -0.32600
H225        H  0.07096620  0.05752745  0.38652183     0.28800
H226        H  0.19976336  0.43101709  0.33798337     0.28800
H227        H  0.14020241  0.45701328  0.41402530     0.19400
H228        H  0.13471591  0.03551526  0.31335482     0.19400
C229        C  0.16277720  0.99637661  0.16277561    -0.06400
C230        C  0.13831977  0.02187393  0.16413790    -0.17600
C231        C  0.11364246  0.02489528  0.13915945     0.10700
C232        C  0.11303977  0.00166981  0.11226873    -0.06400
C233        C  0.13466643  0.47076834  0.11291370    -0.17600
C234        C  0.15928328  0.46697913  0.13787682     0.10800
S235        S  0.08465262  0.05974594  0.14222327    -0.32600
S236        S  0.18760919  0.43165512  0.13430778    -0.32600
H237        H  0.19468058  0.42851139  0.16879222     0.28800
H238        H  0.08232121  0.06545589  0.10738366     0.28800
H239        H  0.13887645  0.03992476  0.18454347     0.19400
H240        H  0.13356596  0.45269496  0.09253945     0.19400
C241        C  0.33796530  0.00147774  0.16442655    -0.06400
C242        C  0.33721251  0.47667184  0.13704642    -0.17600
C243        C  0.36133054  0.47767272  0.11136755     0.10700
C244        C  0.38771119  0.00308355  0.11379361    -0.06400
C245        C  0.38825708  0.02654496  0.14014533    -0.17600
C246        C  0.36333006  0.02646592  0.16502448     0.10800
S247        S  0.36135799  0.44533695  0.07943233    -0.32600
S248        S  0.36487957  0.05930018  0.19630080    -0.32600
H249        H  0.32992938  0.06119588  0.20144882     0.28800
H250        H  0.33527298  0.42567020  0.09301936     0.28800
H251        H  0.31888153  0.45651781  0.13770306     0.19400
H252        H  0.40767283  0.04570078  0.14078377     0.19400
C253        C  0.00376236  0.11018164  0.38461121    -0.06400
C254        C  0.02624121  0.13727335  0.38786413    -0.17600
C255        C  0.02886547  0.16196248  0.36285752     0.10700
C256        C  0.00759698  0.16042804  0.33436301    -0.06400
C257        C  0.48604809  0.13224505  0.33009430    -0.17600
C258        C  0.48411142  0.10724199  0.35474539     0.10800
S259        S  0.05987762  0.19461787  0.36875896    -0.32600
S260        S  0.45365210  0.07431163  0.34844229    -0.32600
H261        H  0.44332468  0.07383086  0.38223243     0.28800
H262        H  0.06537292  0.20092500  0.33441232     0.28800
H263        H  0.04232965  0.13891378  0.40981710     0.19400
H264        H  0.46957833  0.13079557  0.30840213     0.19400
C265        C  0.99752211  0.38529134  0.39173898    -0.06400
C266        C  0.47127867  0.38427734  0.36835908    -0.17600
C267        C  0.46900363  0.35896750  0.34398028     0.10700
C268        C  0.99303966  0.33423482  0.34264708    -0.06400
C269        C  0.01857227  0.33346817  0.36707939    -0.17600
C270        C  0.02111645  0.35866716  0.39154104     0.10800
S271        S  0.43387660  0.36057549  0.31523707    -0.32600
S272        S  0.05598935  0.35633136  0.42058124    -0.32600
H273        H  0.06075534  0.39128576  0.42348218     0.28800
H274        H  0.43245517  0.32577097  0.30902414     0.28800
H275        H  0.45253215  0.40406412  0.36870428     0.19400
H276        H  0.03737421  0.31371060  0.36631705     0.19400
C277        C  0.99765226  0.34309025  0.16792973    -0.06400
C278        C  0.02850250  0.35722133  0.15820042    -0.17600
C279        C  0.03005090  0.38284405  0.13404450     0.10700
C280        C  0.00010181  0.39321996  0.11775067    -0.06400
C281        C  0.47124160  0.37944969  0.12810803    -0.17600
C282        C  0.46997737  0.35503784  0.15336983     0.10800
S283        S  0.07086360  0.40155341  0.12669910    -0.32600
S284        S  0.42913809  0.33944381  0.16551930    -0.32600
H285        H  0.43741650  0.33367644  0.19940321     0.28800
H286        H  0.06120481  0.42737743  0.10470535     0.28800
H287        H  0.05153266  0.34851962  0.16998845     0.19400
H288        H  0.44802088  0.38821142  0.11697654     0.19400
C289        C  0.00204453  0.16790379  0.16014581    -0.06400
C290        C  0.02567807  0.17021899  0.13404099    -0.17600
C291        C  0.02660324  0.14639726  0.10811364     0.10700
C292        C  0.00374788  0.11904769  0.10852030    -0.06400
C293        C  0.47746074  0.11895098  0.13289517    -0.17600
C294        C  0.47639064  0.14344155  0.15804618     0.10800
S295        S  0.05807345  0.15211585  0.07604471    -0.32600
S296        S  0.44159675  0.14219399  0.18708410    -0.32600
H297        H  0.43927512  0.17726810  0.19124505     0.28800
H298        H  0.06330335  0.11765995  0.07030874     0.28800
H299        H  0.04375830  0.19064910  0.13407960     0.19400
H300        H  0.45818106  0.09964586  0.13231739     0.19400
N301        N  0.00172633  0.25354474  0.69932796    -0.36900
N302        N  0.00464567  0.19979723  0.74869491    -0.57500
N303        N  0.00349169  0.24940243  0.80221807    -0.36900
N304        N  0.99762802  0.30293731  0.75294330    -0.57500
C305        C  0.99571292  0.22661482  0.67940123     0.26700
C306        C  0.99420101  0.28143169  0.68131065     0.26700
C307        C  0.99760657  0.22054222  0.81929873     0.26600
C308        C  0.99261601  0.27508549  0.82172102     0.26600
C309        C  0.01105016  0.18199899  0.72051990     0.35300
C310        C  0.01382542  0.18009146  0.77482162     0.35300
C311        C  0.00215632  0.32403593  0.72664790     0.35300
C312        C  0.00127136  0.32167241  0.78107341     0.35300
C313        C  0.98436689  0.23754424  0.64826683    -0.22200
C314        C  0.98395728  0.27210389  0.64927628    -0.22200
C315        C  0.98269255  0.22795602  0.84992573    -0.22200
C316        C  0.97966544  0.26243517  0.85149901    -0.22200
C317        C  0.02438734  0.15081099  0.72873006    -0.23300
C318        C  0.02631494  0.14966118  0.76320155    -0.23300
C319        C  0.00813243  0.35642849  0.73817680    -0.23300
C320        C  0.00786349  0.35486517  0.77262716    -0.23300
C321        C  0.00265590  0.19265919  0.68768465    -0.18600
C322        C  0.99829142  0.31502232  0.69244854    -0.18600
C323        C  0.99602479  0.30968524  0.81414188    -0.18600
C324        C  0.00764037  0.18801295  0.80886578    -0.18600
H325        H  0.97782392  0.22228668  0.62670619     0.14300
H326        H  0.97710242  0.28836296  0.62854794     0.14300
H327        H  0.97517100  0.21037519  0.86931713     0.14300
H328        H  0.96930047  0.27661352  0.87227400     0.14300
H329        H  0.03161638  0.13087212  0.71167411     0.12600
H330        H  0.03517747  0.12857004  0.77801399     0.12600
H331        H  0.01175238  0.37902226  0.72340971     0.12600
H332        H  0.01141562  0.37593273  0.78948018     0.12600
H333        H  0.01393095  0.25318316  0.72240605     0.25800
H334        H  0.01784945  0.25162272  0.78046895     0.25800
O335        O  0.00199682  0.09994107  0.55230200    -0.80500
O336        O  0.99898815  0.40718433  0.55949845    -0.82000
O337        O  0.44527639  0.00614978  0.59741650    -0.79000
O338        O  0.05509559  0.00383647  0.59662594    -0.77400
O339        O  0.09484524  0.49726586  0.55696763    -0.79200
O340        O  0.40273977  0.50294210  0.55432172    -0.80100
O341        O  0.00000164  0.44928408  0.59886709    -0.81500
O342        O  0.00005089  0.06054662  0.59430477    -0.81800
Eu343      Eu  0.99876683  0.50315283  0.56884173     2.39200
O344        O  0.03228409  0.46710286  0.53604774    -0.89300
O345        O  0.46617410  0.03834337  0.53374353    -0.92900
C346        C  0.00136651  0.09116121  0.58355989     1.01800
C347        C  0.00013680  0.41807268  0.59010076     1.01600
C348        C  0.41422380  0.00493707  0.58789085     1.01600
C349        C  0.08599197  0.00177376  0.58681435     0.99400
H350        H  0.45026981  0.45568445  0.55042151     0.29200
O351        O  0.46450806  0.46902891  0.53596081    -1.01600
H352        H  0.04914289  0.05055908  0.54691054     0.29200
O353        O  0.03470531  0.03635768  0.53355938    -1.04200
O354        O  0.99697909  0.40347396  0.94834625    -0.81400
O355        O  0.00367534  0.09544659  0.94182990    -0.81000
O356        O  0.40204152  0.44857122  0.00110297    -0.79400
O357        O  0.09351035  0.44289980  0.00124612    -0.82700
O358        O  0.09812809  0.05345215  0.99703711    -0.80600
O359        O  0.40528194  0.05983143  0.99820655    -0.79200
O360        O  0.44545431  0.49846209  0.90410486    -0.80800
O361        O  0.05628589  0.49847501  0.90582603    -0.82700
O362        O  0.40424549  0.49985522  0.94439872    -0.79400
O363        O  0.09664074  0.49797063  0.94694175    -0.82100
O364        O  0.44150310  0.40668077  0.00449214    -0.77800
O365        O  0.44711081  0.09959512  0.99699675    -0.77900
O366        O  0.05849629  0.09536349  0.99506672    -0.77500
O367        O  0.05172608  0.40326393  0.00215921    -0.81000
O368        O  0.99803477  0.44321614  0.90649064    -0.80400
O369        O  0.00129805  0.05320070  0.90279298    -0.78800
Eu370      Eu  0.99740620  0.43270476  0.00288059     2.39800
Eu371      Eu  0.00199721  0.06994021  0.99788233     2.39600
Eu372      Eu  0.43155497  0.50298011  0.99983190     2.38400
Eu373      Eu  0.06769526  0.49902893  0.00158132     2.39900
Eu374      Eu  0.00033503  0.49952436  0.93246040     2.39800
O375        O  0.03450631  0.03317698  0.96492196    -0.93200
O376        O  0.46528912  0.46698440  0.96736135    -0.92100
C377        C  0.99730146  0.41247810  0.91713618     1.02000
C378        C  0.00296663  0.08453408  0.91130959     1.00700
C379        C  0.41079551  0.41734871  0.00334512     1.00100
C380        C  0.08294708  0.41218210  0.00159601     1.02100
C381        C  0.08915205  0.08458044  0.99513296     1.01000
C382        C  0.41591533  0.09053081  0.99692554     0.99900
C383        C  0.41440776  0.49837412  0.91363418     0.99900
C384        C  0.08721755  0.49829347  0.91585923     1.02600
H385        H  0.45251687  0.04961323  0.95052399     0.29900
O386        O  0.46612299  0.03584231  0.96523961    -1.05300
H387        H  0.04657332  0.45040846  0.95425132     0.32000
O388        O  0.03286170  0.46503793  0.96793899    -1.07900
N389        N  0.24958267  0.99344203  0.80264838    -0.36900
N390        N  0.19852515  0.99170547  0.75048332    -0.57500
N391        N  0.25045642  0.99483700  0.69945827    -0.36900
N392        N  0.30144815  0.99973555  0.75168010    -0.57500
C393        C  0.22155073  0.99949973  0.82089805     0.26700
C394        C  0.27625091  0.00293248  0.82152686     0.26700
C395        C  0.22268717  0.00118205  0.68074478     0.26600
C396        C  0.27742580  0.00524331  0.68148479     0.26600
C397        C  0.17938850  0.98393263  0.77747279     0.35300
C398        C  0.17978837  0.98465626  0.72299185     0.35300
C399        C  0.32075648  0.99354866  0.77896769     0.35300
C400        C  0.32124670  0.99444306  0.72461306     0.35300
C401        C  0.23054315  0.01300985  0.85180149    -0.22200
C402        C  0.26514641  0.01497353  0.85226986    -0.22200
C403        C  0.23215228  0.01562310  0.65042643    -0.22200
C404        C  0.26670955  0.01814778  0.65088098    -0.22200
C405        C  0.14842172  0.97166914  0.76708250    -0.23300
C406        C  0.14866911  0.97214873  0.73253690    -0.23300
C407        C  0.35297518  0.98448211  0.76927005    -0.23300
C408        C  0.35322688  0.98482288  0.73475061    -0.23300
C409        C  0.18838316  0.99084561  0.81118775    -0.18600
C410        C  0.31031874  0.99868665  0.81242475    -0.18600
C411        C  0.31150524  0.00114310  0.69110970    -0.18600
C412        C  0.18928695  0.99244331  0.68962490    -0.18600
H413        H  0.21394819  0.02017234  0.87213477     0.14300
H414        H  0.28039728  0.02397079  0.87295695     0.14300
H415        H  0.21589315  0.02324125  0.62993767     0.14300
H416        H  0.28220298  0.02808316  0.63082639     0.14300
H417        H  0.12758833  0.96384057  0.78275583     0.12600
H418        H  0.12807540  0.96476148  0.71631192     0.12600
H419        H  0.37414760  0.97859917  0.78538405     0.12600
H420        H  0.37465962  0.97925217  0.71894169     0.12600
H421        H  0.25072074  0.97988527  0.78032881     0.25800
H422        H  0.25127308  0.98071585  0.72147417     0.25800
N423        N  0.25105402  0.19980838  0.99092996    -0.36900
N424        N  0.30091687  0.25301632  0.99589409    -0.57500
N425        N  0.24761377  0.30253406  0.99516460    -0.36900
N426        N  0.19776590  0.24948173  0.99228419    -0.57500
C427        C  0.27893108  0.18172709  0.99835008     0.26700
C428        C  0.22414149  0.17983117  0.99690605     0.26700
C429        C  0.27411414  0.32134245  0.00527305     0.26600
C430        C  0.21937893  0.31935132  0.00388677     0.26600
C431        C  0.32122352  0.22673807  0.98872644     0.35300
C432        C  0.31930369  0.28112582  0.99068612     0.35300
C433        C  0.17932368  0.22187897  0.98509445     0.35300
C434        C  0.17753097  0.27626627  0.98701673     0.35300
C435        C  0.26966537  0.14973460  0.00882234    -0.22200
C436        C  0.23508056  0.14849131  0.00778249    -0.22200
C437        C  0.26265193  0.35041980  0.02072021    -0.22200
C438        C  0.22802360  0.34912449  0.01992977    -0.22200
C439        C  0.35267556  0.23815409  0.97892168    -0.23300
C440        C  0.35142792  0.27270014  0.98005638    -0.23300
C441        C  0.14710091  0.23110799  0.97539767    -0.23300
C442        C  0.14606903  0.26563557  0.97624727    -0.23300
C443        C  0.31248859  0.19266799  0.99375642    -0.18600
C444        C  0.19016166  0.18855274  0.99080429    -0.18600
C445        C  0.18625098  0.30977804  0.99503098    -0.18600
C446        C  0.30818757  0.31399148  0.99831646    -0.18600
H447        H  0.28611881  0.12923763  0.01603450     0.13500
H448        H  0.21980181  0.12681004  0.01396552     0.14300
H449        H  0.27768060  0.37068627  0.03097342     0.14300
H450        H  0.21113118  0.36823908  0.02945322     0.14300
H451        H  0.37436078  0.22314091  0.97214614     0.12600
H452        H  0.37197541  0.28962945  0.97431271     0.12600
H453        H  0.12631753  0.21470533  0.96901235     0.12600
H454        H  0.12433808  0.28102857  0.97048435     0.12600
H455        H  0.25061134  0.22303267  0.97890668     0.25800
H456        H  0.24875559  0.28176126  0.97929402     0.25800
C457        C  0.33349437  0.34157389  0.00007922    -0.06400
C458        C  0.35807468  0.34071715  0.52859658    -0.17600
C459        C  0.38367437  0.36483545  0.52956364     0.10700
C460        C  0.38355614  0.39195261  0.00418978    -0.06400
C461        C  0.35769998  0.39416131  0.98022296    -0.17600
C462        C  0.33327438  0.36893281  0.97734704     0.10800
S463        S  0.41488607  0.36032418  0.56208532    -0.32600
S464        S  0.30343802  0.37237391  0.94330721    -0.32600
H465        H  0.30055880  0.33758943  0.93746365     0.28800
H466        H  0.42098612  0.39493616  0.56587303     0.28800
H467        H  0.35815839  0.32043853  0.54685960     0.19400
H468        H  0.35735780  0.41497979  0.96264237     0.19400
C469        C  0.39039807  0.11733719  0.99492153    -0.06400
C470        C  0.38925389  0.14098790  0.52222432    -0.17600
C471        C  0.36393123  0.16548272  0.52367132     0.10700
C472        C  0.33975647  0.16705807  0.99481717    -0.06400
C473        C  0.34181333  0.14359572  0.96860975    -0.17600
C474        C  0.36668435  0.11870663  0.96847869     0.10800
S475        S  0.36398030  0.19355413  0.55928566    -0.32600
S476        S  0.36692035  0.08964687  0.93375679    -0.32600
H477        H  0.40201015  0.08522148  0.93288287     0.28800
H478        H  0.32884250  0.19731507  0.56107089     0.28800
H479        H  0.40800236  0.13995363  0.54201976     0.19400
H480        H  0.32380832  0.14468356  0.94814322     0.19400
C481        C  0.10872209  0.38543840  0.00042041    -0.06400
C482        C  0.13573485  0.38939176  0.97801042    -0.17600
C483        C  0.16046943  0.36459862  0.97472779     0.10700
C484        C  0.15931206  0.33578729  0.99555984    -0.06400
C485        C  0.13261244  0.33306083  0.52267342    -0.17600
C486        C  0.10732599  0.35744229  0.52422609     0.10800
S487        S  0.19236310  0.37094838  0.94305726    -0.32600
S488        S  0.07465376  0.35122912  0.55502151    -0.32600
H489        H  0.06889469  0.38552326  0.56080150     0.28800
H490        H  0.19814033  0.33667664  0.93643434     0.28800
H491        H  0.13699715  0.41152199  0.96209546     0.19400
H492        H  0.13189897  0.31189877  0.53988973     0.19400
C493        C  0.16429328  0.16169263  0.99232774    -0.06400
C494        C  0.15336877  0.14685842  0.96225847    -0.17600
C495        C  0.12935497  0.12109506  0.96247587     0.10700
C496        C  0.11600118  0.10989711  0.99338185    -0.06400
C497        C  0.12693839  0.12393916  0.52428271    -0.17600
C498        C  0.15075167  0.14982130  0.52431399     0.10800
S499        S  0.11647593  0.10388937  0.92261981    -0.32600
S500        S  0.16409135  0.16606800  0.56451221    -0.32600
H501        H  0.16965171  0.19929571  0.55374910     0.28800
H502        H  0.11146177  0.07089104  0.93431522     0.28800
H503        H  0.16364912  0.15543907  0.93852056     0.19400
H504        H  0.11779965  0.11422015  0.54801019     0.19400
C505        C  0.38852366  0.49641544  0.88728047    -0.06400
C506        C  0.37990558  0.02811053  0.87104947    -0.17600
C507        C  0.35500234  0.02919496  0.84624703     0.10700
C508        C  0.33633602  0.99979571  0.83915055    -0.06400
C509        C  0.34851686  0.46585160  0.85268076    -0.17600
C510        C  0.37358762  0.46567052  0.87747041     0.10800
S511        S  0.34909660  0.06874651  0.82452869    -0.32600
S512        S  0.38507425  0.42528777  0.89502965    -0.32600
H513        H  0.41362587  0.43502212  0.91336763     0.28800
H514        H  0.31775785  0.06205477  0.80974591     0.28800
H515        H  0.39352339  0.05083792  0.87690158     0.19400
H516        H  0.33689548  0.44230972  0.84528896     0.19400
C517        C  0.11381602  0.49771027  0.88981069    -0.06400
C518        C  0.14016250  0.47433616  0.89314885    -0.17600
C519        C  0.16427272  0.47021157  0.86779627     0.10700
C520        C  0.16139706  0.99118304  0.83718613    -0.06400
C521        C  0.13580014  0.01539075  0.83446569    -0.17600
C522        C  0.11059022  0.01817844  0.85883114     0.10800
S523        S  0.19490535  0.43709561  0.87323588    -0.32600
S524        S  0.07940879  0.05069326  0.85255946    -0.32600
H525        H  0.07220211  0.05627452  0.88661395     0.28800
H526        H  0.19949329  0.43045865  0.83883520     0.28800
H527        H  0.14111333  0.45806784  0.91502454     0.19400
H528        H  0.13577065  0.03261571  0.81330807     0.19400
C529        C  0.16254617  0.99382876  0.66324364    -0.06400
C530        C  0.13734614  0.01847728  0.66597000    -0.17600
C531        C  0.11245993  0.02214978  0.64126401     0.10700
C532        C  0.11249459  0.00058272  0.61297977    -0.06400
C533        C  0.13435305  0.47000577  0.61261468    -0.17600
C534        C  0.15868200  0.46538485  0.63771009     0.10800
S535        S  0.08236410  0.05573537  0.64671799    -0.32600
S536        S  0.18601340  0.42929106  0.63413618    -0.32600
H537        H  0.19212364  0.42543394  0.66874015     0.28800
H538        H  0.07934736  0.06346192  0.61233151     0.28800
H539        H  0.13746920  0.03542918  0.68730265     0.19400
H540        H  0.13296250  0.45212631  0.59208855     0.19400
C541        C  0.33798496  0.00334676  0.66464501    -0.06400
C542        C  0.33886308  0.47140622  0.63798471    -0.17600
C543        C  0.36227158  0.47372452  0.61189993     0.10700
C544        C  0.38818347  0.00349466  0.61433340    -0.06400
C545        C  0.38897610  0.02720270  0.64045656    -0.17600
C546        C  0.36386174  0.02786240  0.66516936     0.10800
S547        S  0.36238235  0.44077084  0.58098349    -0.32600
S548        S  0.36592756  0.06108071  0.69602972    -0.32600
H549        H  0.33117882  0.06272853  0.70238016     0.28800
H550        H  0.35292164  0.46257919  0.55473322     0.28800
H551        H  0.32187416  0.45007749  0.63888354     0.19400
H552        H  0.40871429  0.04603130  0.64099607     0.19400
C553        C  0.00446536  0.11005081  0.88428031    -0.06400
C554        C  0.02736242  0.13677427  0.88756661    -0.17600
C555        C  0.03017766  0.16160796  0.86274909     0.10700
C556        C  0.00878991  0.16048019  0.83431092    -0.06400
C557        C  0.48794870  0.13286447  0.82965748    -0.17600
C558        C  0.48620137  0.10761836  0.85404321     0.10800
S559        S  0.06157488  0.19385129  0.86896626    -0.32600
S560        S  0.45719340  0.07373180  0.84641782    -0.32600
H561        H  0.44593429  0.07282982  0.87986346     0.28800
H562        H  0.06609216  0.20181393  0.83483814     0.28800
H563        H  0.04363393  0.13801206  0.90942242     0.19400
H564        H  0.47194352  0.13117834  0.80763338     0.19400
C565        C  0.99699903  0.38554689  0.89160545    -0.06400
C566        C  0.47105689  0.38429998  0.86856623    -0.17600
C567        C  0.46899429  0.35883560  0.84434910     0.10700
C568        C  0.99421120  0.33454734  0.84219051    -0.06400
C569        C  0.02048723  0.33527226  0.86581889    -0.17600
C570        C  0.02218691  0.36045184  0.89040769     0.10800
S571        S  0.43323441  0.35914036  0.81637455    -0.32600
S572        S  0.05797148  0.36016471  0.91839858    -0.32600
H573        H  0.06099740  0.39534846  0.92083370     0.28800
H574        H  0.43250752  0.32418039  0.81091064     0.28800
H575        H  0.45180980  0.40356949  0.86923897     0.19400
H576        H  0.04041990  0.31670119  0.86436907     0.19400
C577        C  0.99811418  0.34236318  0.66693386    -0.06400
C578        C  0.02875455  0.35782582  0.65863190    -0.17600
C579        C  0.03028159  0.38368088  0.63473250     0.10700
C580        C  0.00064284  0.39290001  0.61722124    -0.06400
C581        C  0.47180431  0.38063162  0.62920698    -0.17600
C582        C  0.47066157  0.35561183  0.65385987     0.10800
S583        S  0.07054753  0.40419497  0.62942450    -0.32600
S584        S  0.42982100  0.33951557  0.66547453    -0.32600
H585        H  0.43829484  0.33025396  0.69850683     0.28800
H586        H  0.06148097  0.42804934  0.60509619     0.28800
H587        H  0.05158026  0.35006061  0.67142680     0.19400
H588        H  0.44852044  0.38963004  0.61838484     0.19400
C589        C  0.00119313  0.16702722  0.66045506    -0.06400
C590        C  0.02474535  0.16880089  0.63426299    -0.17600
C591        C  0.02519336  0.14477316  0.60859781     0.10700
C592        C  0.00188606  0.11788878  0.60927694    -0.06400
C593        C  0.47957282  0.11820364  0.63410846    -0.17600
C594        C  0.47893035  0.14282899  0.65919305     0.10800
S595        S  0.05683765  0.14933158  0.57652726    -0.32600
S596        S  0.44517628  0.14090604  0.68942550    -0.32600
H597        H  0.44296983  0.17581089  0.69476702     0.28800
H598        H  0.06260145  0.11464327  0.57277890     0.28800
H599        H  0.04316479  0.18892218  0.63406284     0.19400
H600        H  0.46042212  0.09876384  0.63409300     0.19400
N601        N  0.00076652  0.75400601  0.19957881    -0.36900
N602        N  0.00086782  0.69999178  0.24899203    -0.57500
N603        N  0.00096227  0.74958298  0.30253994    -0.36900
N604        N  0.99803952  0.80339032  0.25339858    -0.57500
C605        C  0.99346662  0.72733092  0.17967340     0.26700
C606        C  0.99383091  0.78228236  0.18184304     0.26700
C607        C  0.99479343  0.72093404  0.31984939     0.26600
C608        C  0.99114391  0.77558000  0.32218676     0.26600
C609        C  0.00662645  0.68195041  0.22080099     0.35300
C610        C  0.00899099  0.67982464  0.27516218     0.35300
C611        C  0.00397850  0.82430812  0.22725892     0.35300
C612        C  0.00194828  0.82188239  0.28164671     0.35300
C613        C  0.98193345  0.73880269  0.14880796    -0.22200
C614        C  0.98250748  0.77343503  0.15003829    -0.22200
C615        C  0.98089652  0.72878116  0.35083787    -0.22200
C616        C  0.97861573  0.76329630  0.35231865    -0.22200
C617        C  0.01834319  0.65012694  0.22907584    -0.23300
C618        C  0.01999908  0.64883243  0.26353531    -0.23300
C619        C  0.01138783  0.85633620  0.23900815    -0.23300
C620        C  0.01031956  0.85472955  0.27344882    -0.23300
C621        C  0.99916795  0.69304663  0.18784025    -0.18600
C622        C  0.99936322  0.81572619  0.19304789    -0.18600
C623        C  0.99535898  0.81009635  0.31454024    -0.18600
C624        C  0.00376157  0.68814084  0.30932032    -0.18600
H625        H  0.97444321  0.72380218  0.12737073     0.14300
H626        H  0.97555674  0.79009717  0.12965332     0.14300
H627        H  0.97357445  0.71145189  0.37052953     0.14300
H628        H  0.96918169  0.77772586  0.37336270     0.14300
H629        H  0.02476784  0.62987179  0.21207217     0.12600
H630        H  0.02786914  0.62732896  0.27830937     0.12600
H631        H  0.01626822  0.87878918  0.22439395     0.12600
H632        H  0.01447143  0.87556852  0.29045214     0.12600
H633        H  0.01336319  0.75309160  0.22245053     0.25800
H634        H  0.01491801  0.75133474  0.28051143     0.25800
O635        O  0.00154883  0.59870579  0.05394369    -0.80500
O636        O  0.99996985  0.90892340  0.06141600    -0.82000
O637        O  0.44332105  0.50498949  0.09594323    -0.79000
O638        O  0.05378390  0.50148776  0.09734586    -0.77400
O639        O  0.09605028  0.99986727  0.05529427    -0.79200
O640        O  0.40395339  0.00454297  0.05651526    -0.80100
O641        O  0.00083037  0.95166997  0.10008848    -0.81500
O642        O  0.99837490  0.55903287  0.09561710    -0.81800
Eu643      Eu  0.00022101  0.00491095  0.06873214     2.39200
O644        O  0.03348827  0.96819968  0.03626408    -0.89300
O645        O  0.46593507  0.53738169  0.03367428    -0.92900
C646        C  0.00004162  0.58974117  0.08512553     1.01800
C647        C  0.00090221  0.92028352  0.09187286     1.01600
C648        C  0.41248560  0.50459036  0.08563447     1.01600
C649        C  0.08477893  0.49876685  0.08795202     0.99400
H650        H  0.45079034  0.95706415  0.05159156     0.29200
O651        O  0.46484466  0.97031393  0.03684513    -1.01600
H652        H  0.04902308  0.54940709  0.04855736     0.29200
O653        O  0.03466238  0.53553994  0.03477463    -1.04200
O654        O  0.99659192  0.90293051  0.44995565    -0.81400
O655        O  0.00352519  0.59564883  0.44299166    -0.81000
O656        O  0.40236363  0.94828000  0.50377235    -0.79400
O657        O  0.09426356  0.94414922  0.50182837    -0.82700
O658        O  0.09718870  0.55365198  0.49955629    -0.80600
O659        O  0.40538836  0.55887253  0.49723738    -0.79200
O660        O  0.44310703  0.99798091  0.40540992    -0.80800
O661        O  0.05368437  0.99809848  0.40395982    -0.82700
O662        O  0.40268020  0.99944303  0.44648621    -0.79400
O663        O  0.09471017  0.99862831  0.44443510    -0.82100
O664        O  0.44236413  0.90685706  0.50618821    -0.77800
O665        O  0.44706378  0.59878150  0.49778217    -0.77900
O666        O  0.05751780  0.59555250  0.49761550    -0.77500
O667        O  0.05297425  0.90404731  0.50429737    -0.81000
O668        O  0.99651910  0.94220729  0.40768373    -0.80400
O669        O  0.00234347  0.55377348  0.40346367    -0.78800
Eu670      Eu  0.99825517  0.93300093  0.50394368     2.39800
Eu671      Eu  0.00132173  0.56948556  0.49900621     2.39600
Eu672      Eu  0.43117078  0.00311969  0.50133813     2.38400
Eu673      Eu  0.06775424  0.99993459  0.50036229     2.39900
Eu674      Eu  0.99892915  0.99879341  0.43258585     2.39800
O675        O  0.03463056  0.53327814  0.46612767    -0.93200
O676        O  0.46454369  0.96678899  0.46881232    -0.92100
C677        C  0.99613802  0.91161295  0.41866142     1.02000
C678        C  0.00324098  0.58501262  0.41232408     1.00700
C679        C  0.41155024  0.91713658  0.50577912     1.00100
C680        C  0.08410443  0.91333665  0.50348572     1.02100
C681        C  0.08819206  0.58482558  0.49800852     1.01000
C682        C  0.41589245  0.58965943  0.49705423     0.99900
C683        C  0.41226044  0.99800002  0.41552498     0.99900
C684        C  0.08474315  0.99851896  0.41347759     1.02600
H685        H  0.45335042  0.54879203  0.45018213     0.29900
O686        O  0.46684457  0.53495369  0.46494272    -1.05300
H687        H  0.04641681  0.95025351  0.45412788     0.32000
O688        O  0.03277466  0.96501680  0.46776160    -1.07900
N689        N  0.25053553  0.49203986  0.30220575    -0.36900
N690        N  0.19831076  0.49071402  0.25114523    -0.57500
N691        N  0.24946375  0.49221089  0.19892062    -0.36900
N692        N  0.30154953  0.49666140  0.25004591    -0.57500
C693        C  0.22293306  0.49874032  0.32095578     0.26700
C694        C  0.27773586  0.50127426  0.32047706     0.26700
C695        C  0.22133736  0.49776287  0.18049087     0.26600
C696        C  0.27609309  0.50164126  0.17992381     0.26600
C697        C  0.17968847  0.48332183  0.27860893     0.35300
C698        C  0.17911028  0.48301703  0.22415116     0.35300
C699        C  0.32173024  0.49208468  0.27704439     0.35300
C700        C  0.32121294  0.49299564  0.22258562     0.35300
C701        C  0.23274872  0.51243423  0.35150506    -0.22200
C702        C  0.26737306  0.51376786  0.35130652    -0.22200
C703        C  0.23020562  0.51060672  0.14929644    -0.22200
C704        C  0.26474629  0.51303135  0.14892893    -0.22200
C705        C  0.14858303  0.47077743  0.26900842    -0.23300
C706        C  0.14819468  0.47065429  0.23447668    -0.23300
C707        C  0.35443497  0.48578921  0.26673105    -0.23300
C708        C  0.35407509  0.48618010  0.23220896    -0.23300
C709        C  0.18940307  0.49047522  0.31207164    -0.18600
C710        C  0.31164829  0.49675316  0.31076829    -0.18600
C711        C  0.31042395  0.49853305  0.18911600    -0.18600
C712        C  0.18808825  0.48965442  0.19042060    -0.18600
H713        H  0.21667733  0.52013708  0.37205669     0.14300
H714        H  0.28311679  0.52278375  0.37160866     0.14300
H715        H  0.21355912  0.51725493  0.12877999     0.14300
H716        H  0.27979423  0.52197943  0.12808791     0.14300
H717        H  0.12814228  0.46295806  0.28519164     0.12600
H718        H  0.12740878  0.46274350  0.21875050     0.12600
H719        H  0.37639113  0.48203035  0.28242595     0.12600
H720        H  0.37569303  0.48260690  0.21607386     0.12600
H721        H  0.25102292  0.47826551  0.28000049     0.25800
H722        H  0.25060092  0.47928102  0.22161200     0.25800
N723        N  0.25042936  0.69955726  0.49719102    -0.36900
N724        N  0.30135364  0.75202418  0.50053319    -0.57500
N725        N  0.24878210  0.80229731  0.49960793    -0.36900
N726        N  0.19785335  0.75005516  0.49862799    -0.57500
C727        C  0.27817648  0.68098196  0.50395730     0.26700
C728        C  0.22328189  0.67989030  0.50321893     0.26700
C729        C  0.27573219  0.82071983  0.50924099     0.26600
C730        C  0.22096643  0.81972149  0.50851275     0.26600
C731        C  0.32105400  0.72530321  0.49334262     0.35300
C732        C  0.32006953  0.77973794  0.49440220     0.35300
C733        C  0.17885451  0.72266087  0.49199270     0.35300
C734        C  0.17814793  0.77716698  0.49289704     0.35300
C735        C  0.26857790  0.64899389  0.51410551    -0.22200
C736        C  0.23396273  0.64823581  0.51345496    -0.22200
C737        C  0.26495506  0.85006529  0.52468917    -0.22200
C738        C  0.23031987  0.84945291  0.52419833    -0.22200
C739        C  0.35246318  0.73603534  0.48265630    -0.23300
C740        C  0.35180363  0.77059242  0.48320401    -0.23300
C741        C  0.14677730  0.73239704  0.48226074    -0.23300
C742        C  0.14644531  0.76696793  0.48245319    -0.23300
C743        C  0.31186482  0.69143028  0.49887672    -0.18600
C744        C  0.18930562  0.68910960  0.49752992    -0.18600
C745        C  0.18757428  0.81068251  0.50016528    -0.18600
C746        C  0.30957652  0.81292171  0.50161725    -0.18600
H747        H  0.28482689  0.62814016  0.52072538     0.13500
H748        H  0.21851633  0.62661252  0.51939879     0.14300
H749        H  0.28044282  0.87014735  0.53461509     0.14300
H750        H  0.21388789  0.86897182  0.53370116     0.14300
H751        H  0.37372964  0.72056888  0.47557556     0.12600
H752        H  0.37247642  0.78704198  0.47660237     0.12600
H753        H  0.12566526  0.71633864  0.47610142     0.12600
H754        H  0.12504138  0.78270893  0.47640008     0.12600
H755        H  0.25016222  0.72291732  0.48546225     0.25800
H756        H  0.24933675  0.78138905  0.48387425     0.25800
C757        C  0.33523604  0.84030789  0.50267545    -0.06400
C758        C  0.36134694  0.83817301  0.02549644    -0.17600
C759        C  0.38623949  0.86298736  0.02751154     0.10700
C760        C  0.38477539  0.89126510  0.50692899    -0.06400
C761        C  0.35728874  0.89461878  0.48499532    -0.17600
C762        C  0.33314761  0.86917326  0.48190832     0.10800
S763        S  0.41910158  0.85650488  0.05805969    -0.32600
S764        S  0.30116570  0.87460952  0.45010349    -0.32600
H765        H  0.29711872  0.84020208  0.44294472     0.28800
H766        H  0.42417778  0.89080240  0.06466629     0.28800
H767        H  0.36289099  0.81642986  0.04192091     0.19400
H768        H  0.35540223  0.91660218  0.46898207     0.19400
C769        C  0.39023443  0.61649267  0.49625102    -0.06400
C770        C  0.38835784  0.63976412  0.02323708    -0.17600
C771        C  0.36279496  0.66404175  0.02451869     0.10700
C772        C  0.33887224  0.66548294  0.49914779    -0.06400
C773        C  0.34020858  0.64249246  0.47247008    -0.17600
C774        C  0.36571325  0.61831583  0.47060550     0.10800
S775        S  0.36148631  0.69129981  0.06075945    -0.32600
S776        S  0.36646171  0.59149840  0.43416853    -0.32600
H777        H  0.40173731  0.58915117  0.43240783     0.28800
H778        H  0.32643870  0.69613004  0.06087134     0.28800
H779        H  0.40634482  0.63817369  0.04368980     0.19400
H780        H  0.32155151  0.64385272  0.45261079     0.19400
C781        C  0.11030943  0.88692859  0.50371182    -0.06400
C782        C  0.13734019  0.89020103  0.48123053    -0.17600
C783        C  0.16227607  0.86548263  0.47894028     0.10700
C784        C  0.16108870  0.83722369  0.50054042    -0.06400
C785        C  0.13449741  0.83411491  0.02346612    -0.17600
C786        C  0.10928755  0.85856907  0.02534094     0.10800
S787        S  0.19440879  0.87117872  0.44741465    -0.32600
S788        S  0.07744300  0.85275275  0.05703305    -0.32600
H789        H  0.07133274  0.88711656  0.06206870     0.28800
H790        H  0.19910558  0.83675437  0.44073891     0.28800
H791        H  0.13846140  0.91170794  0.46446496     0.19400
H792        H  0.13401136  0.81305304  0.04081278     0.19400
C793        C  0.16322323  0.66230907  0.49824181    -0.06400
C794        C  0.15135295  0.64950231  0.46757651    -0.17600
C795        C  0.12749486  0.62359080  0.46670717     0.10700
C796        C  0.11504611  0.61025674  0.49714708    -0.06400
C797        C  0.12708594  0.62264976  0.02684073    -0.17600
C798        C  0.15045271  0.64892697  0.02763145     0.10800
S799        S  0.11424153  0.60847755  0.42609686    -0.32600
S800        S  0.16282987  0.66452228  0.06840023    -0.32600
H801        H  0.17189136  0.69709580  0.05813656     0.28800
H802        H  0.10813297  0.57516075  0.43626803     0.28800
H803        H  0.16096226  0.65965255  0.44417523     0.19400
H804        H  0.11762550  0.61250611  0.05027057     0.19400
C805        C  0.38597994  0.99671046  0.38954376    -0.06400
C806        C  0.37922148  0.52675956  0.37160043    -0.17600
C807        C  0.35453585  0.52779235  0.34656394     0.10700
C808        C  0.33807253  0.49770754  0.33718374    -0.06400
C809        C  0.34463606  0.96744542  0.35537268    -0.17600
C810        C  0.36948141  0.96655375  0.38041528     0.10800
S811        S  0.34509023  0.56852123  0.32859594    -0.32600
S812        S  0.37888932  0.92607519  0.39899163    -0.32600
H813        H  0.40822747  0.93469716  0.41664766     0.28800
H814        H  0.32607341  0.55806387  0.30082194     0.28800
H815        H  0.39122394  0.54991158  0.37916992     0.19400
H816        H  0.33187397  0.94437710  0.34838501     0.19400
C817        C  0.11094977  0.99841265  0.38704909    -0.06400
C818        C  0.13739047  0.97509987  0.38978386    -0.17600
C819        C  0.16217821  0.97255428  0.36491634     0.10700
C820        C  0.16286854  0.49123113  0.33865480    -0.06400
C821        C  0.13671070  0.51482050  0.33564359    -0.17600
C822        C  0.11175316  0.51776360  0.36025984     0.10800
S823        S  0.19346036  0.93996241  0.36981616    -0.32600
S824        S  0.07965825  0.54925941  0.35345699    -0.32600
H825        H  0.07419912  0.55675430  0.38748969     0.28800
H826        H  0.19874605  0.93455400  0.33529805     0.28800
H827        H  0.13813705  0.95793625  0.41098080     0.19400
H828        H  0.13594612  0.53137086  0.31397159     0.19400
C829        C  0.16087791  0.49039067  0.16458017    -0.06400
C830        C  0.13701282  0.51641041  0.16608456    -0.17600
C831        C  0.11226191  0.52003182  0.14127994     0.10700
C832        C  0.11087692  0.49688148  0.11438136    -0.06400
C833        C  0.13775416  0.97647883  0.11068065    -0.17600
C834        C  0.16226471  0.97330545  0.13576385     0.10800
S835        S  0.08448622  0.55580640  0.14432386    -0.32600
S836        S  0.19175598  0.93896539  0.13210699    -0.32600
H837        H  0.19687597  0.93439284  0.16678462     0.28800
H838        H  0.08315014  0.56187433  0.10951593     0.28800
H839        H  0.13831072  0.53462768  0.18630794     0.19400
H840        H  0.13732204  0.95844147  0.09025166     0.19400
C841        C  0.33630938  0.50145974  0.16213954    -0.06400
C842        C  0.33764771  0.97786836  0.13825602    -0.17600
C843        C  0.36213054  0.97833515  0.11307996     0.10700
C844        C  0.38581307  0.50342411  0.11135362    -0.06400
C845        C  0.38507971  0.52813159  0.13649082    -0.17600
C846        C  0.36005319  0.52798134  0.16125373     0.10800
S847        S  0.36012444  0.94567907  0.08170732    -0.32600
S848        S  0.35936438  0.56258311  0.19056376    -0.32600
H849        H  0.32428018  0.56270939  0.19517189     0.28800
H850        H  0.39514611  0.94158191  0.07936877     0.28800
H851        H  0.31836928  0.95856753  0.13775717     0.19400
H852        H  0.40356807  0.54819448  0.13625852     0.19400
C853        C  0.00360010  0.61062781  0.38537083    -0.06400
C854        C  0.02649610  0.63741745  0.38763609    -0.17600
C855        C  0.02818333  0.66214646  0.36258434     0.10700
C856        C  0.00556627  0.66091874  0.33509469    -0.06400
C857        C  0.48691530  0.63330997  0.33194664    -0.17600
C858        C  0.48491605  0.60820067  0.35646721     0.10800
S859        S  0.05977503  0.69444544  0.36721141    -0.32600
S860        S  0.45322790  0.57633305  0.35087244    -0.32600
H861        H  0.44443555  0.57506561  0.38507373     0.28800
H862        H  0.06368994  0.70108516  0.33271890     0.28800
H863        H  0.04365577  0.63874499  0.40878578     0.19400
H864        H  0.46971100  0.63260234  0.31078878     0.19400
C865        C  0.99544166  0.88460716  0.39328139    -0.06400
C866        C  0.46839297  0.88412647  0.36956516    -0.17600
C867        C  0.46651862  0.85911767  0.34480230     0.10700
C868        C  0.99334021  0.83497657  0.34253469    -0.06400
C869        C  0.01840266  0.83420838  0.36744252    -0.17600
C870        C  0.01976007  0.85867161  0.39270035     0.10800
S871        S  0.43164545  0.86110340  0.31573387    -0.32600
S872        S  0.05417237  0.85641088  0.42227725    -0.32600
H873        H  0.05893678  0.89138379  0.42495595     0.28800
H874        H  0.43179906  0.82689735  0.30679282     0.28800
H875        H  0.44950543  0.90380240  0.37005713     0.19400
H876        H  0.03769283  0.81493478  0.36655643     0.19400
C877        C  0.99912618  0.84351944  0.16790389    -0.06400
C878        C  0.02985932  0.85839051  0.15884218    -0.17600
C879        C  0.03120442  0.88502828  0.13575554     0.10700
C880        C  0.00128877  0.89540772  0.11939486    -0.06400
C881        C  0.47129038  0.88031883  0.12893873    -0.17600
C882        C  0.47024278  0.85509369  0.15348107     0.10800
S883        S  0.07162449  0.90516063  0.13010132    -0.32600
S884        S  0.42953627  0.83824747  0.16444752    -0.32600
H885        H  0.43741277  0.83054223  0.19803538     0.28800
H886        H  0.06175844  0.93148915  0.10881452     0.28800
H887        H  0.05290959  0.84969477  0.17059053     0.19400
H888        H  0.44802189  0.88859777  0.11753570     0.19400
C889        C  0.99765328  0.66741718  0.16046950    -0.06400
C890        C  0.02246916  0.66799438  0.13541538    -0.17600
C891        C  0.02393171  0.64301739  0.11066282     0.10700
C892        C  0.00011598  0.61657284  0.11083095    -0.06400
C893        C  0.47693670  0.61584841  0.13676211    -0.17600
C894        C  0.47566395  0.64102774  0.16137988     0.10800
S895        S  0.05761558  0.64571180  0.08048772    -0.32600
S896        S  0.44242139  0.63841693  0.19214575    -0.32600
H897        H  0.44007072  0.67318851  0.19819201     0.28800
H898        H  0.06214391  0.61080233  0.07715727     0.28800
H899        H  0.04133617  0.68769244  0.13563585     0.19400
H900        H  0.45836234  0.59586394  0.13719390     0.19400
N901        N  0.00658512  0.75324076  0.69965522    -0.36900
N902        N  0.00793228  0.69971929  0.74948241    -0.57500
N903        N  0.00652364  0.74959558  0.80266203    -0.36900
N904        N  0.00244662  0.80298546  0.75308950    -0.57500
C905        C  0.99966536  0.72630166  0.67994306     0.26700
C906        C  0.99981959  0.78128516  0.68148718     0.26700
C907        C  0.00056340  0.72089117  0.81996011     0.26600
C908        C  0.99539224  0.77540426  0.82185869     0.26600
C909        C  0.01309844  0.68130235  0.72144858     0.35300
C910        C  0.01613304  0.67978987  0.77577030     0.35300
C911        C  0.00815940  0.82387725  0.72686187     0.35300
C912        C  0.00550037  0.82175783  0.78128112     0.35300
C913        C  0.98871845  0.73739570  0.64873413    -0.22200
C914        C  0.98933579  0.77199816  0.64951482    -0.22200
C915        C  0.98549131  0.72852751  0.85044817    -0.22200
C916        C  0.98224132  0.76295599  0.85164536    -0.22200
C917        C  0.02469719  0.64948852  0.72991021    -0.23300
C918        C  0.02688370  0.64861247  0.76437037    -0.23300
C919        C  0.01453094  0.85617068  0.73853033    -0.23300
C920        C  0.01308556  0.85475226  0.77297252    -0.23300
C921        C  0.00505491  0.69205939  0.68854788    -0.18600
C922        C  0.00427995  0.81494965  0.69260566    -0.18600
C923        C  0.99891285  0.80997291  0.81419065    -0.18600
C924        C  0.01028062  0.68821017  0.80977099    -0.18600
H925        H  0.98160990  0.72217335  0.62732573     0.14300
H926        H  0.98282357  0.78831752  0.62872327     0.14300
H927        H  0.97786993  0.71111480  0.86995008     0.14300
H928        H  0.97167108  0.77723462  0.87224838     0.14300
H929        H  0.03054677  0.62894350  0.71304422     0.12600
H930        H  0.03454903  0.62715331  0.77932022     0.12600
H931        H  0.01900658  0.87867861  0.72388116     0.12600
H932        H  0.01649511  0.87579015  0.78989348     0.12600
H933        H  0.01857319  0.75269957  0.72284619     0.25800
H934        H  0.02102169  0.75160960  0.78099461     0.25800
O935        O  0.00155457  0.59861152  0.55378886    -0.80500
O936        O  0.00038955  0.90844229  0.56106773    -0.82000
O937        O  0.44286431  0.50400354  0.59571069    -0.79000
O938        O  0.05393957  0.50168463  0.59726034    -0.77400
O939        O  0.09551034  0.99990746  0.55581563    -0.79200
O940        O  0.40421150  0.00427661  0.55699679    -0.80100
O941        O  0.00122243  0.95093038  0.60000866    -0.81500
O942        O  0.99891384  0.55889192  0.59547473    -0.81800
Eu943      Eu  0.99967931  0.00431160  0.56900772     2.39200
O944        O  0.03309807  0.96814044  0.53621440    -0.89300
O945        O  0.46577071  0.53741982  0.53336764    -0.92900
C946        C  0.00053708  0.58960068  0.58500694     1.01800
C947        C  0.00161021  0.91961764  0.59156009     1.01600
C948        C  0.41200723  0.50291677  0.58540339     1.01600
C949        C  0.08491961  0.49887903  0.58782562     0.99400
H950        H  0.45107404  0.95652179  0.55157350     0.29200
O951        O  0.46506799  0.96974288  0.53674310    -1.01600
H952        H  0.04890876  0.54938995  0.54826089     0.29200
O953        O  0.03458000  0.53550151  0.53447359    -1.04200
O954        O  0.99722701  0.90277216  0.95012421    -0.81400
O955        O  0.00438011  0.59635309  0.94372986    -0.81000
O956        O  0.40216643  0.94884684  0.00313214    -0.79400
O957        O  0.09463034  0.94386181  0.00162370    -0.82700
O958        O  0.09729265  0.55323523  0.99909512    -0.80600
O959        O  0.40528456  0.55906493  0.99772736    -0.79200
O960        O  0.44417924  0.99958210  0.90489335    -0.80800
O961        O  0.05383326  0.99728831  0.90375053    -0.82700
O962        O  0.40349218  0.00041391  0.94572314    -0.79400
O963        O  0.09487031  0.99742330  0.94423304    -0.82100
O964        O  0.44202742  0.90733320  0.00595379    -0.77800
O965        O  0.44698717  0.59890972  0.99891736    -0.77900
O966        O  0.05779228  0.59529372  0.99731334    -0.77500
O967        O  0.05310068  0.90403741  0.00433145    -0.81000
O968        O  0.99689043  0.94184813  0.90767416    -0.80400
O969        O  0.00357095  0.55453016  0.90414708    -0.78800
Eu970      Eu  0.99850698  0.93317593  0.00401068     2.39800
Eu971      Eu  0.00149231  0.56964355  0.99930030     2.39600
Eu972      Eu  0.43131036  0.00365974  0.00102099     2.38400
Eu973      Eu  0.06816906  0.99959119  0.00006839     2.39900
Eu974      Eu  0.99918484  0.99866083  0.93230807     2.39800
O975        O  0.03471171  0.53333343  0.96656528    -0.93200
O976        O  0.46484124  0.96740160  0.96868982    -0.92100
C977        C  0.99681898  0.91127464  0.91877027     1.02000
C978        C  0.00466740  0.58575947  0.91307597     1.00700
C979        C  0.41121276  0.91765528  0.00530362     1.00100
C980        C  0.08427292  0.91313481  0.00333114     1.02100
C981        C  0.08840098  0.58441526  0.99739066     1.01000
C982        C  0.41579581  0.58982377  0.99790116     0.99900
C983        C  0.41327172  0.99947720  0.91479168     0.99900
C984        C  0.08486519  0.99723446  0.91331713     1.02600
H985        H  0.45345284  0.54948040  0.95054411     0.29900
O986        O  0.46695584  0.53549999  0.96515497    -1.05300
H987        H  0.04648458  0.95001048  0.95405863     0.32000
O988        O  0.03292324  0.96490572  0.96762522    -1.07900
N989        N  0.25070204  0.48998074  0.80219112    -0.36900
N990        N  0.19833452  0.48841422  0.75119120    -0.57500
N991        N  0.24947727  0.48760544  0.69896701    -0.36900
N992        N  0.30171681  0.49213546  0.75012561    -0.57500
C993        C  0.22321056  0.49762085  0.82074213     0.26700
C994        C  0.27805284  0.49932437  0.82022585     0.26700
C995        C  0.22151760  0.49340492  0.68032763     0.26600
C996        C  0.27635334  0.49599164  0.67981301     0.26600
C997        C  0.17943786  0.48237152  0.77879816     0.35300
C998        C  0.17872042  0.48130835  0.72432759     0.35300
C999        C  0.32186423  0.48795286  0.77718937     0.35300
C1000       C  0.32131164  0.48769467  0.72276716     0.35300
C1001       C  0.23324119  0.51200463  0.85089535    -0.22200
C1002       C  0.26786368  0.51282170  0.85068186    -0.22200
C1003       C  0.23078718  0.50509361  0.64880002    -0.22200
C1004       C  0.26534126  0.50668904  0.64846282    -0.22200
C1005       C  0.14773239  0.47121560  0.76940505    -0.23300
C1006       C  0.14724531  0.47066414  0.73487988    -0.23300
C1007       C  0.35447119  0.48092354  0.76700619    -0.23300
C1008       C  0.35410302  0.48069104  0.73247673    -0.23300
C1009       C  0.18952040  0.48969212  0.81214159    -0.18600
C1010       C  0.31192322  0.49404804  0.81069870    -0.18600
C1011       C  0.31061544  0.49297135  0.68927943    -0.18600
C1012       C  0.18794508  0.48695542  0.69047045    -0.18600
H1013       H  0.21729050  0.52053487  0.87121192     0.14300
H1014       H  0.28370601  0.52214590  0.87076155     0.14300
H1015       H  0.21438754  0.51170016  0.62807791     0.14300
H1016       H  0.28060241  0.51480827  0.62744163     0.14300
H1017       H  0.12692415  0.46470447  0.78569427     0.12600
H1018       H  0.12602925  0.46362698  0.71930972     0.12600
H1019       H  0.37640243  0.47727015  0.78276104     0.12600
H1020       H  0.37565745  0.47663984  0.71636406     0.12600
H1021       H  0.25093039  0.47556516  0.78039134     0.25800
H1022       H  0.25028706  0.47548923  0.72210671     0.25800
N1023       N  0.25037017  0.69939214  0.99566612    -0.36900
N1024       N  0.30107653  0.75226434  0.00009172    -0.57500
N1025       N  0.24829338  0.80212392  0.99979970    -0.36900
N1026       N  0.19758096  0.74958668  0.99796965    -0.57500
C1027       C  0.27821614  0.68090948  0.00219048     0.26700
C1028       C  0.22334981  0.67952433  0.00161731     0.26700
C1029       C  0.27507676  0.82086373  0.00928026     0.26600
C1030       C  0.22032099  0.81945905  0.00829845     0.26600
C1031       C  0.32084183  0.72571553  0.99240108     0.35300
C1032       C  0.31962186  0.78016853  0.99417862     0.35300
C1033       C  0.17873690  0.72217977  0.99099055     0.35300
C1034       C  0.17780705  0.77664380  0.99229069     0.35300
C1035       C  0.26881147  0.64872591  0.01193545    -0.22200
C1036       C  0.23419854  0.64780771  0.01144461    -0.22200
C1037       C  0.26401405  0.85032558  0.02431670    -0.22200
C1038       C  0.22938203  0.84947699  0.02362224    -0.22200
C1039       C  0.35212703  0.73673430  0.98167080    -0.23300
C1040       C  0.35130201  0.77129392  0.98262620    -0.23300
C1041       C  0.14668207  0.73183034  0.98112087    -0.23300
C1042       C  0.14620256  0.76639945  0.98158706    -0.23300
C1043       C  0.31183752  0.69170517  0.99746564    -0.18600
C1044       C  0.18932058  0.68866265  0.99629988    -0.18600
C1045       C  0.18707733  0.81015685  0.99969753    -0.18600
C1046       C  0.30897879  0.81329134  0.00164052    -0.18600
H1047       H  0.28518178  0.62788947  0.01830620     0.13500
H1048       H  0.21884360  0.62608528  0.01728411     0.14300
H1049       H  0.27929897  0.87070722  0.03394217     0.14300
H1050       H  0.21276829  0.86907209  0.03264885     0.14300
H1051       H  0.37337836  0.72144170  0.97418334     0.12600
H1052       H  0.37180904  0.78792955  0.97597505     0.12600
H1053       H  0.12571664  0.71570178  0.97464021     0.12600
H1054       H  0.12478815  0.78211928  0.97550844     0.12600
H1055       H  0.24998312  0.72291750  0.98427580     0.25800
H1056       H  0.24902875  0.78111019  0.98423749     0.25800
C1057       C  0.33452780  0.84085157  0.00267959    -0.06400
C1058       C  0.36197716  0.83757694  0.52560154    -0.17600
C1059       C  0.38680911  0.86242148  0.52777421     0.10700
C1060       C  0.38429012  0.89179211  0.00656934    -0.06400
C1061       C  0.35661587  0.89517307  0.98485171    -0.17600
C1062       C  0.33237393  0.86974565  0.98193704     0.10800
S1063       S  0.41975929  0.85596204  0.55828871    -0.32600
S1064       S  0.30018511  0.87521351  0.95035221    -0.32600
H1065       H  0.29630982  0.84081744  0.94303607     0.28800
H1066       H  0.42425564  0.89023627  0.56548779     0.28800
H1067       H  0.36348577  0.81580610  0.54199090     0.19400
H1068       H  0.35462010  0.91717870  0.96890134     0.19400
C1069       C  0.39010724  0.61661749  0.99667095    -0.06400
C1070       C  0.38937010  0.63993269  0.52259411    -0.17600
C1071       C  0.36381192  0.66415102  0.52453290     0.10700
C1072       C  0.33901767  0.66596744  0.99810381    -0.06400
C1073       C  0.34117701  0.64323408  0.97128719    -0.17600
C1074       C  0.36637204  0.61868894  0.97027453     0.10800
S1075       S  0.36427417  0.69229188  0.56012405    -0.32600
S1076       S  0.36717793  0.59128243  0.93425378    -0.32600
H1077       H  0.40219499  0.58636630  0.93400704     0.28800
H1078       H  0.32932780  0.69757944  0.56149325     0.28800
H1079       H  0.40816124  0.63870409  0.54233906     0.19400
H1080       H  0.32316939  0.64482440  0.95085418     0.19400
C1081       C  0.11024150  0.88656026  0.00332644    -0.06400
C1082       C  0.13656313  0.88913631  0.97994087    -0.17600
C1083       C  0.16128114  0.86422468  0.97751608     0.10700
C1084       C  0.16053982  0.83653109  0.99982635    -0.06400
C1085       C  0.13444141  0.83425020  0.52348343    -0.17600
C1086       C  0.10898991  0.85850259  0.52515334     0.10800
S1087       S  0.19268213  0.86902917  0.94511119    -0.32600
S1088       S  0.07637565  0.85195426  0.55593509    -0.32600
H1089       H  0.07108061  0.88621626  0.56237409     0.28800
H1090       H  0.19800968  0.83446223  0.93979032     0.28800
H1091       H  0.13731083  0.91026446  0.96268292     0.19400
H1092       H  0.13359682  0.81284356  0.54038664     0.19400
C1093       C  0.16334613  0.66180456  0.99710134    -0.06400
C1094       C  0.15215239  0.64825375  0.96652267    -0.17600
C1095       C  0.12831247  0.62234044  0.96580977     0.10700
C1096       C  0.11530074  0.60971430  0.99632149    -0.06400
C1097       C  0.12760769  0.62235070  0.52772719    -0.17600
C1098       C  0.15099728  0.64863260  0.52870924     0.10800
S1099       S  0.11551957  0.60661685  0.92532349    -0.32600
S1100       S  0.16445766  0.66299580  0.56962610    -0.32600
H1101       H  0.17472265  0.69541066  0.56000691     0.28800
H1102       H  0.10987749  0.57337872  0.93598714     0.28800
H1103       H  0.16218804  0.65789736  0.94308637     0.19400
H1104       H  0.11889097  0.61141342  0.55107554     0.19400
C1105       C  0.38711889  0.99841693  0.88864984    -0.06400
C1106       C  0.37838730  0.52633810  0.87163107    -0.17600
C1107       C  0.35388232  0.52648219  0.84638329     0.10700
C1108       C  0.33845334  0.49586348  0.83697677    -0.06400
C1109       C  0.34355385  0.96998197  0.85667955    -0.17600
C1110       C  0.36908456  0.96878192  0.88095264     0.10800
S1111       S  0.34334393  0.56670839  0.82794825    -0.32600
S1112       S  0.37773591  0.92844449  0.90011334    -0.32600
H1113       H  0.40912841  0.93594657  0.91446831     0.28800
H1114       H  0.32792884  0.55499350  0.79847546     0.28800
H1115       H  0.38972084  0.54986904  0.87908973     0.19400
H1116       H  0.32968010  0.94725571  0.85076620     0.19400
C1117       C  0.11101227  0.99636443  0.88700018    -0.06400
C1118       C  0.13676563  0.97232401  0.88985600    -0.17600
C1119       C  0.16151505  0.96906950  0.86506756     0.10700
C1120       C  0.16326133  0.49111873  0.83899009    -0.06400
C1121       C  0.13739646  0.51502808  0.83605520    -0.17600
C1122       C  0.11267596  0.51847268  0.86086347     0.10800
S1123       S  0.19221636  0.93600332  0.87037599    -0.32600
S1124       S  0.08104754  0.55043024  0.85403793    -0.32600
H1125       H  0.07449248  0.55712394  0.88801765     0.28800
H1126       H  0.19831304  0.93086727  0.83596209     0.28800
H1127       H  0.13705020  0.95525907  0.91114507     0.19400
H1128       H  0.13663936  0.53139495  0.81424461     0.19400
C1129       C  0.16072587  0.48852310  0.66461383    -0.06400
C1130       C  0.13743311  0.51507698  0.66621872    -0.17600
C1131       C  0.11277650  0.51938485  0.64139725     0.10700
C1132       C  0.11105345  0.49654567  0.61423567    -0.06400
C1133       C  0.13785519  0.97611373  0.61013793    -0.17600
C1134       C  0.16244403  0.97214705  0.63508268     0.10800
S1135       S  0.08551472  0.55551043  0.64485731    -0.32600
S1136       S  0.19253256  0.93857555  0.62975320    -0.32600
H1137       H  0.19756991  0.93244275  0.66420440     0.28800
H1138       H  0.08390940  0.56171345  0.61009830     0.28800
H1139       H  0.13905255  0.53310296  0.68659095     0.19400
H1140       H  0.13786834  0.95916676  0.58879436     0.19400
C1141       C  0.33661470  0.49652432  0.66258149    -0.06400
C1142       C  0.33753983  0.97941026  0.63875397    -0.17600
C1143       C  0.36220060  0.97918691  0.61373512     0.10700
C1144       C  0.38533328  0.50078868  0.61113251    -0.06400
C1145       C  0.38337507  0.52576550  0.63595508    -0.17600
C1146       C  0.35861858  0.52447445  0.66100078     0.10800
S1147       S  0.35984594  0.94629594  0.58262084    -0.32600
S1148       S  0.35593168  0.55947427  0.68972093    -0.32600
H1149       H  0.32093610  0.55761352  0.69461350     0.28800
H1150       H  0.39481510  0.94146576  0.58064490     0.28800
H1151       H  0.31802130  0.96035242  0.63836699     0.19400
H1152       H  0.40063806  0.54687938  0.63525540     0.19400
C1153       C  0.00620484  0.61137689  0.88619878    -0.06400
C1154       C  0.02955459  0.63774875  0.88904706    -0.17600
C1155       C  0.03268264  0.66212842  0.86379210     0.10700
C1156       C  0.01104494  0.66100308  0.83554794    -0.06400
C1157       C  0.48519276  0.63469128  0.83321147    -0.17600
C1158       C  0.48362927  0.60962978  0.85780458     0.10800
S1159       S  0.06475906  0.69385704  0.86906547    -0.32600
S1160       S  0.45226352  0.57738267  0.85247329    -0.32600
H1161       H  0.44361595  0.57601751  0.88671181     0.28800
H1162       H  0.06981315  0.70008234  0.83463864     0.28800
H1163       H  0.04597271  0.63896692  0.91078158     0.19400
H1164       H  0.46794001  0.63364573  0.81210827     0.19400
C1165       C  0.99667354  0.88411181  0.89344687    -0.06400
C1166       C  0.46979788  0.88541201  0.86928868    -0.17600
C1167       C  0.46840174  0.86039753  0.84456676     0.10700
C1168       C  0.99616032  0.83480044  0.84223140    -0.06400
C1169       C  0.02060437  0.83403427  0.86775757    -0.17600
C1170       C  0.02104363  0.85817701  0.89337486     0.10800
S1171       S  0.43302021  0.86090877  0.81610821    -0.32600
S1172       S  0.05420372  0.85523146  0.92429452    -0.32600
H1173       H  0.05918422  0.89010669  0.92760308     0.28800
H1174       H  0.43251253  0.82603509  0.81013282     0.28800
H1175       H  0.45044911  0.90464135  0.86989722     0.19400
H1176       H  0.04002304  0.81487475  0.86723056     0.19400
C1177       C  0.00300069  0.84263943  0.66733239    -0.06400
C1178       C  0.03292270  0.85955600  0.65909037    -0.17600
C1179       C  0.03315493  0.88611593  0.63585991     0.10700
C1180       C  0.00302102  0.89454810  0.61880154    -0.06400
C1181       C  0.46967909  0.88231289  0.63050771    -0.17600
C1182       C  0.46819284  0.85713574  0.65512617     0.10800
S1183       S  0.07247624  0.90847557  0.63064810    -0.32600
S1184       S  0.42705251  0.84311479  0.66828762    -0.32600
H1185       H  0.43627605  0.83251171  0.70071292     0.28800
H1186       H  0.06305879  0.93057355  0.60483422     0.28800
H1187       H  0.05617884  0.85241742  0.67146220     0.19400
H1188       H  0.44646491  0.89219122  0.62021723     0.19400
C1189       C  0.00251214  0.66616469  0.66153519    -0.06400
C1190       C  0.02703411  0.66591093  0.63623706    -0.17600
C1191       C  0.02689666  0.64143106  0.61099926     0.10700
C1192       C  0.00173455  0.61627656  0.61087324    -0.06400
C1193       C  0.47591061  0.61576079  0.63661465    -0.17600
C1194       C  0.47438420  0.64054258  0.66165123     0.10800
S1195       S  0.06027829  0.64319244  0.58050201    -0.32600
S1196       S  0.44189714  0.63635761  0.69306037    -0.32600
H1197       H  0.43854110  0.67092189  0.69974951     0.28800
H1198       H  0.06285855  0.60824654  0.57592778     0.28800
H1199       H  0.04679319  0.68471670  0.63649804     0.19400
H1200       H  0.45784919  0.59531175  0.63707394     0.19400
N1201       N  0.50310863  0.25418860  0.19927224    -0.36900
N1202       N  0.50380603  0.19972320  0.24809669    -0.57500
N1203       N  0.50199637  0.24865209  0.30200037    -0.36900
N1204       N  0.49841825  0.30287284  0.25333597    -0.57500
C1205       C  0.49692652  0.22762015  0.17895252     0.26700
C1206       C  0.49609634  0.28239540  0.18154955     0.26700
C1207       C  0.49559862  0.21969137  0.31866786     0.26600
C1208       C  0.49102828  0.27425512  0.32152385     0.26600
C1209       C  0.51079565  0.18232070  0.21981262     0.35300
C1210       C  0.51270906  0.17975807  0.27413840     0.35300
C1211       C  0.50492906  0.32398193  0.22747457     0.35300
C1212       C  0.50273354  0.32089332  0.28182168     0.35300
C1213       C  0.48613797  0.23908071  0.14780916    -0.22200
C1214       C  0.48603780  0.27363674  0.14929775    -0.22200
C1215       C  0.48009201  0.22691564  0.34905631    -0.22200
C1216       C  0.47726899  0.26143764  0.35088207    -0.22200
C1217       C  0.52411043  0.15108720  0.22785083    -0.23300
C1218       C  0.52561293  0.14957058  0.26234649    -0.23300
C1219       C  0.51303647  0.35566527  0.23960674    -0.23300
C1220       C  0.51192114  0.35362465  0.27404589    -0.23300
C1221       C  0.50320936  0.19350454  0.18695992    -0.18600
C1222       C  0.50066693  0.31574322  0.19315631    -0.18600
C1223       C  0.49570833  0.30882867  0.31452406    -0.18600
C1224       C  0.50609390  0.18732921  0.30819361    -0.18600
H1225       H  0.47971547  0.22415955  0.12597694     0.14300
H1226       H  0.47957308  0.29028970  0.12874971     0.14300
H1227       H  0.47222665  0.20919712  0.36818834     0.14300
H1228       H  0.46679698  0.27553029  0.37166353     0.14300
H1229       H  0.53179448  0.13144777  0.21064854     0.12600
H1230       H  0.53451981  0.12841743  0.27704212     0.12600
H1231       H  0.51867873  0.37809349  0.22523417     0.12600
H1232       H  0.51666678  0.37409076  0.29134173     0.12600
H1233       H  0.51505805  0.25332301  0.22248188     0.25800
H1234       H  0.51700693  0.25094363  0.28070382     0.25800
O1235       O  0.50311565  0.10133968  0.05111794    -0.80500
O1236       O  0.50026164  0.40749401  0.06003348    -0.82000
O1237       O  0.94465552  0.00599880  0.09619770    -0.79000
O1238       O  0.55536568  0.00534738  0.09654323    -0.77400
O1239       O  0.59521642  0.49728774  0.05659284    -0.79200
O1240       O  0.90273547  0.50412573  0.05393185    -0.80100
O1241       O  0.50012454  0.44979369  0.09918345    -0.81500
O1242       O  0.50018320  0.06223911  0.09336418    -0.81800
Eu1243     Eu  0.49913378  0.50348033  0.06903961     2.39200
O1244       O  0.53259430  0.46717230  0.03631439    -0.89300
O1245       O  0.96653069  0.03822697  0.03319199    -0.92900
C1246       C  0.50195641  0.09276325  0.08239209     1.01800
C1247       C  0.50103531  0.41856223  0.09059266     1.01600
C1248       C  0.91367114  0.00487261  0.08635515     1.01600
C1249       C  0.58617544  0.00293461  0.08655132     0.99400
H1250       H  0.94938609  0.45559996  0.04955012     0.29200
O1251       O  0.96384082  0.46897822  0.03533152    -1.01600
H1252       H  0.54977618  0.05118196  0.04656221     0.29200
O1253       O  0.53523703  0.03696268  0.03334584    -1.04200
O1254       O  0.49728407  0.40251640  0.44940390    -0.81400
O1255       O  0.50314791  0.09539958  0.44169446    -0.81000
O1256       O  0.90187942  0.44826368  0.49926114    -0.79400
O1257       O  0.59377049  0.44290934  0.50135749    -0.82700
O1258       O  0.59712075  0.05401382  0.49667310    -0.80600
O1259       O  0.90406183  0.05842867  0.49819339    -0.79200
O1260       O  0.94541994  0.49825545  0.40311845    -0.80800
O1261       O  0.55629046  0.49661978  0.40560784    -0.82700
O1262       O  0.90411616  0.49980302  0.44323349    -0.79400
O1263       O  0.59690593  0.49704408  0.44642540    -0.82100
O1264       O  0.94143757  0.40647804  0.50280713    -0.77800
O1265       O  0.94566231  0.09841116  0.49823870    -0.77900
O1266       O  0.55735413  0.09581847  0.49467730    -0.77500
O1267       O  0.55204610  0.40316167  0.50257641    -0.81000
O1268       O  0.49827108  0.44180062  0.40715205    -0.80400
O1269       O  0.50142156  0.05294486  0.40287541    -0.78800
Eu1270     Eu  0.49792932  0.43253290  0.50367430     2.39800
Eu1271     Eu  0.50118838  0.06994028  0.49786811     2.39600
Eu1272     Eu  0.93129821  0.50262843  0.49898969     2.38400
Eu1273     Eu  0.56807236  0.49909878  0.50127869     2.39900
Eu1274     Eu  0.50039996  0.49834157  0.43254347     2.39800
O1275       O  0.53382422  0.03322439  0.46500150    -0.93200
O1276       O  0.96492866  0.46645603  0.46674897    -0.92100
C1277       C  0.49755702  0.41116547  0.41807259     1.02000
C1278       C  0.50285474  0.08432808  0.41121284     1.00700
C1279       C  0.91072060  0.41707441  0.50132184     1.00100
C1280       C  0.58319421  0.41220076  0.50175141     1.02100
C1281       C  0.58802286  0.08510469  0.49471235     1.01000
C1282       C  0.91448413  0.08922728  0.49774352     0.99900
C1283       C  0.91431176  0.49833785  0.41245487     0.99900
C1284       C  0.58732341  0.49667353  0.41536667     1.02600
H1285       H  0.95177265  0.04892911  0.45057510     0.29900
O1286       O  0.96553360  0.03520823  0.46519550    -1.05300
H1287       H  0.54685963  0.44975136  0.45466508     0.32000
O1288       O  0.53320605  0.46451466  0.46827090    -1.07900
N1289       N  0.74948528  0.99331393  0.30124035    -0.36900
N1290       N  0.69834093  0.99428635  0.24953991    -0.57500
N1291       N  0.75037670  0.99585284  0.19841972    -0.36900
N1292       N  0.80146451  0.99674699  0.25029944    -0.57500
C1293       C  0.72181470  0.00083720  0.31957235     0.26700
C1294       C  0.77669471  0.00145010  0.32003343     0.26700
C1295       C  0.72282509  0.00422828  0.18027769     0.26600
C1296       C  0.77756126  0.00629684  0.18083647     0.26600
C1297       C  0.67878747  0.98733209  0.27644080     0.35300
C1298       C  0.67942394  0.98812742  0.22199609     0.35300
C1299       C  0.82062123  0.98954167  0.27743003     0.35300
C1300       C  0.82106853  0.99180254  0.22303670     0.35300
C1301       C  0.73158157  0.01401851  0.35034910    -0.22200
C1302       C  0.76624035  0.01419079  0.35072741    -0.22200
C1303       C  0.73255005  0.02009784  0.15077951    -0.22200
C1304       C  0.76716370  0.02146512  0.15115974    -0.22200
C1305       C  0.64731933  0.97651246  0.26592278    -0.23300
C1306       C  0.64773061  0.97700105  0.23137485    -0.23300
C1307       C  0.85261652  0.97996597  0.26739604    -0.23300
C1308       C  0.85282821  0.98116511  0.23283786    -0.23300
C1309       C  0.68819278  0.99353916  0.31017952    -0.18600
C1310       C  0.81054720  0.99530416  0.31096021    -0.18600
C1311       C  0.81144964  0.00024664  0.18988649    -0.18600
C1312       C  0.68934882  0.99586676  0.18880253    -0.18600
H1313       H  0.71542244  0.02201986  0.37071623     0.14300
H1314       H  0.78192171  0.02237629  0.37142038     0.14300
H1315       H  0.71639177  0.02945875  0.13093543     0.14300
H1316       H  0.78289854  0.03209600  0.13165331     0.14300
H1317       H  0.62607733  0.96962844  0.28148376     0.12600
H1318       H  0.62685051  0.97068641  0.21505714     0.12600
H1319       H  0.87379242  0.97357924  0.28330845     0.12600
H1320       H  0.87417526  0.97581470  0.21683250     0.12600
H1321       H  0.74987025  0.97956954  0.27900100     0.25800
H1322       H  0.75069894  0.98036201  0.21953843     0.25800
N1323       N  0.75040586  0.19983833  0.49277841    -0.36900
N1324       N  0.80043304  0.25303700  0.49768730    -0.57500
N1325       N  0.74723943  0.30269098  0.49522088    -0.36900
N1326       N  0.69723454  0.24957002  0.49306963    -0.57500
C1327       C  0.77809362  0.18179391  0.50096743     0.26700
C1328       C  0.72336737  0.17987592  0.49820456     0.26700
C1329       C  0.77374725  0.32199617  0.50418763     0.26600
C1330       C  0.71905824  0.31999537  0.50301225     0.26600
C1331       C  0.82075576  0.22649129  0.49148774     0.35300
C1332       C  0.81889134  0.28094021  0.49158033     0.35300
C1333       C  0.67884152  0.22200453  0.48556921     0.35300
C1334       C  0.67725329  0.27640316  0.48711625     0.35300
C1335       C  0.76858627  0.14987366  0.51140303    -0.22200
C1336       C  0.73408298  0.14856120  0.50939358    -0.22200
C1337       C  0.76235386  0.35195725  0.51794574    -0.22200
C1338       C  0.72773940  0.35066397  0.51728344    -0.22200
C1339       C  0.85230617  0.23752786  0.48162072    -0.23300
C1340       C  0.85109841  0.27207296  0.48156006    -0.23300
C1341       C  0.64689848  0.23136098  0.47504677    -0.23300
C1342       C  0.64599353  0.26588504  0.47574636    -0.23300
C1343       C  0.81176624  0.19250963  0.49677243    -0.18600
C1344       C  0.68950154  0.18862735  0.49146632    -0.18600
C1345       C  0.68596909  0.30999114  0.49466188    -0.18600
C1346       C  0.80775441  0.31418588  0.49756224    -0.18600
H1347       H  0.78485364  0.12940931  0.51910922     0.13500
H1348       H  0.71876226  0.12681228  0.51518418     0.14300
H1349       H  0.77740368  0.37281959  0.52689774     0.14300
H1350       H  0.71090190  0.37038764  0.52559901     0.14300
H1351       H  0.87397158  0.22227586  0.47533806     0.12600
H1352       H  0.87169363  0.28873551  0.47524632     0.12600
H1353       H  0.62620161  0.21509289  0.46810313     0.12600
H1354       H  0.62453634  0.28140909  0.46931740     0.12600
H1355       H  0.75023814  0.22294660  0.48053940     0.25800
H1356       H  0.74836237  0.28109862  0.48051524     0.25800
C1357       C  0.83316743  0.34165669  0.49854232    -0.06400
C1358       C  0.85817008  0.34100147  0.02581058    -0.17600
C1359       C  0.88334239  0.36551261  0.02692788     0.10700
C1360       C  0.88356300  0.39165775  0.50196487    -0.06400
C1361       C  0.85769745  0.39381112  0.47799293    -0.17600
C1362       C  0.83303146  0.36876438  0.47545736     0.10800
S1363       S  0.91465063  0.36129668  0.05939938    -0.32600
S1364       S  0.80281604  0.37246653  0.44173215    -0.32600
H1365       H  0.79751572  0.33776837  0.43735809     0.28800
H1366       H  0.91975428  0.39600188  0.06385615     0.28800
H1367       H  0.85871808  0.32051304  0.04382999     0.19400
H1368       H  0.85736862  0.41456760  0.46035628     0.19400
C1369       C  0.88881545  0.11606550  0.49649751    -0.06400
C1370       C  0.88794109  0.13929558  0.02388071    -0.17600
C1371       C  0.86244714  0.16365609  0.02493308     0.10700
C1372       C  0.83875057  0.16651415  0.49748922    -0.06400
C1373       C  0.83979357  0.14279581  0.47143029    -0.17600
C1374       C  0.86444005  0.11768713  0.47066377     0.10800
S1375       S  0.85876874  0.18870834  0.06251521    -0.32600
S1376       S  0.86389303  0.08910722  0.43557367    -0.32600
H1377       H  0.89899041  0.08499381  0.43379557     0.28800
H1378       H  0.82350568  0.19155987  0.06159336     0.28800
H1379       H  0.90477579  0.13657048  0.04517716     0.19400
H1380       H  0.82130000  0.14402249  0.45140689     0.19400
C1381       C  0.60879798  0.38551359  0.50030539    -0.06400
C1382       C  0.63428829  0.38829231  0.47606052    -0.17600
C1383       C  0.65891909  0.36343899  0.47271733     0.10700
C1384       C  0.65893943  0.33574768  0.49501924    -0.06400
C1385       C  0.63298691  0.33281996  0.02050147    -0.17600
C1386       C  0.60765804  0.35709200  0.02239932     0.10800
S1387       S  0.68932958  0.36841240  0.43939212    -0.32600
S1388       S  0.57556411  0.35080564  0.05377037    -0.32600
H1389       H  0.56992040  0.38509131  0.05980325     0.28800
H1390       H  0.69606249  0.33398310  0.43485317     0.28800
H1391       H  0.63449840  0.40959369  0.45900395     0.19400
H1392       H  0.63290688  0.31198489  0.03812617     0.19400
C1393       C  0.66354415  0.16180726  0.49272862    -0.06400
C1394       C  0.65089532  0.14896643  0.46238744    -0.17600
C1395       C  0.62667557  0.12340792  0.46224256     0.10700
C1396       C  0.61481221  0.11043139  0.49304728    -0.06400
C1397       C  0.62887260  0.12212886  0.02409362    -0.17600
C1398       C  0.65281974  0.14785279  0.02457511     0.10800
S1399       S  0.61204717  0.10834918  0.42211944    -0.32600
S1400       S  0.66702394  0.16245586  0.06514303    -0.32600
H1401       H  0.67548622  0.19533317  0.05528906     0.28800
H1402       H  0.60654913  0.07501120  0.43257536     0.28800
H1403       H  0.66004948  0.15890298  0.43871225     0.19400
H1404       H  0.62003851  0.11168418  0.04764699     0.19400
C1405       C  0.88842346  0.49663055  0.38590273    -0.06400
C1406       C  0.87719312  0.02617411  0.37239975    -0.17600
C1407       C  0.85264368  0.02679632  0.34719424     0.10700
C1408       C  0.83685518  0.99644074  0.33752287    -0.06400
C1409       C  0.84829294  0.46636269  0.35109128    -0.17600
C1410       C  0.87331745  0.46601451  0.37593108     0.10800
S1411       S  0.84222879  0.06739407  0.32946953    -0.32600
S1412       S  0.88417009  0.42561369  0.39374102    -0.32600
H1413       H  0.91410079  0.43479054  0.41005128     0.28800
H1414       H  0.82598160  0.05641375  0.30016582     0.28800
H1415       H  0.88900379  0.04949315  0.37979885     0.19400
H1416       H  0.83662461  0.44287655  0.34359345     0.19400
C1417       C  0.61379887  0.49565443  0.38901625    -0.06400
C1418       C  0.64132076  0.47380754  0.39334526    -0.17600
C1419       C  0.66540082  0.46937525  0.36796004     0.10700
C1420       C  0.66147846  0.99395621  0.33661059    -0.06400
C1421       C  0.63566671  0.01801106  0.33427838    -0.17600
C1422       C  0.61038654  0.02026716  0.35871090     0.10800
S1423       S  0.69773664  0.43822667  0.37495221    -0.32600
S1424       S  0.57863002  0.05221565  0.35248673    -0.32600
H1425       H  0.57071095  0.05705885  0.38646736     0.28800
H1426       H  0.70171859  0.42940953  0.34095927     0.28800
H1427       H  0.64331545  0.45893723  0.41611874     0.19400
H1428       H  0.63535763  0.03537027  0.31323344     0.19400
C1429       C  0.66311262  0.99729007  0.16216836    -0.06400
C1430       C  0.63873103  0.02280345  0.16378222    -0.17600
C1431       C  0.61379127  0.02579574  0.13911752     0.10700
C1432       C  0.61282461  0.00246011  0.11234661    -0.06400
C1433       C  0.63525838  0.47058574  0.11101793    -0.17600
C1434       C  0.65926699  0.46508841  0.13616330     0.10800
S1435       S  0.58504278  0.06079934  0.14240248    -0.32600
S1436       S  0.68710126  0.42955665  0.13133593    -0.32600
H1437       H  0.69195572  0.42378868  0.16588208     0.28800
H1438       H  0.58205447  0.06609190  0.10757285     0.28800
H1439       H  0.63951291  0.04084115  0.18419237     0.19400
H1440       H  0.63444049  0.45369657  0.08963954     0.19400
C1441       C  0.83768744  0.00273071  0.16326824    -0.06400
C1442       C  0.83778208  0.47292019  0.13640935    -0.17600
C1443       C  0.86157570  0.47506415  0.11070200     0.10700
C1444       C  0.88738056  0.00348203  0.11253133    -0.06400
C1445       C  0.88904999  0.02610773  0.13955034    -0.17600
C1446       C  0.86418337  0.02650142  0.16447706     0.10800
S1447       S  0.86199675  0.44212288  0.07975107    -0.32600
S1448       S  0.86732929  0.05846865  0.19652088    -0.32600
H1449       H  0.83264220  0.06096131  0.20295239     0.28800
H1450       H  0.85294666  0.46397116  0.05339276     0.28800
H1451       H  0.82048601  0.45182849  0.13692402     0.19400
H1452       H  0.90936570  0.04428180  0.14071732     0.19400
C1453       C  0.50428553  0.10964103  0.38394419    -0.06400
C1454       C  0.52643678  0.13699719  0.38726601    -0.17600
C1455       C  0.52896078  0.16161776  0.36218848     0.10700
C1456       C  0.50782155  0.15980234  0.33361853    -0.06400
C1457       C  0.98537703  0.13320516  0.33097250    -0.17600
C1458       C  0.98328170  0.10815845  0.35559228     0.10800
S1459       S  0.55974915  0.19449642  0.36802255    -0.32600
S1460       S  0.95248992  0.07550995  0.34933864    -0.32600
H1461       H  0.94277356  0.07424500  0.38329097     0.28800
H1462       H  0.56545698  0.20044396  0.33364172     0.28800
H1463       H  0.54231699  0.13892697  0.40934097     0.19400
H1464       H  0.96875738  0.13202420  0.30937673     0.19400
C1465       C  0.49693126  0.38405502  0.39264203    -0.06400
C1466       C  0.97183176  0.38587396  0.36755577    -0.17600
C1467       C  0.96882267  0.36030091  0.34362230     0.10700
C1468       C  0.49381313  0.33348102  0.34273470    -0.06400
C1469       C  0.51922754  0.33298123  0.36729643    -0.17600
C1470       C  0.52111681  0.35794805  0.39210430     0.10800
S1471       S  0.93357878  0.36235120  0.31507163    -0.32600
S1472       S  0.55603168  0.35613336  0.42109696    -0.32600
H1473       H  0.56061381  0.39116319  0.42335670     0.28800
H1474       H  0.93092527  0.32740228  0.31019836     0.28800
H1475       H  0.95353627  0.40608205  0.36774269     0.19400
H1476       H  0.53845324  0.31364295  0.36637210     0.19400
C1477       C  0.50020098  0.34350043  0.16809214    -0.06400
C1478       C  0.53079723  0.35831894  0.15861525    -0.17600
C1479       C  0.53183124  0.38413079  0.13464928     0.10700
C1480       C  0.50183227  0.39364761  0.11796242    -0.06400
C1481       C  0.96922672  0.37997596  0.12842325    -0.17600
C1482       C  0.96756010  0.35543456  0.15357853     0.10800
S1483       S  0.57200648  0.40408753  0.12759181    -0.32600
S1484       S  0.92634285  0.34076693  0.16579863    -0.32600
H1485       H  0.93493624  0.33040217  0.19846669     0.28800
H1486       H  0.55962476  0.43495816  0.11591762     0.28800
H1487       H  0.55394305  0.35014767  0.17054704     0.19400
H1488       H  0.94610636  0.38943729  0.11762283     0.19400
C1489       C  0.50176906  0.16827355  0.15942452    -0.06400
C1490       C  0.52644224  0.16921773  0.13424469    -0.17600
C1491       C  0.52680862  0.14545403  0.10832111     0.10700
C1492       C  0.50233407  0.11961437  0.10789496    -0.06400
C1493       C  0.98000825  0.11697119  0.13453870    -0.17600
C1494       C  0.97834622  0.14139055  0.15975100     0.10800
S1495       S  0.55961393  0.14917719  0.07727866    -0.32600
S1496       S  0.94491034  0.13759148  0.19016552    -0.32600
H1497       H  0.94145130  0.17224542  0.19636075     0.28800
H1498       H  0.56358271  0.11445440  0.07209452     0.28800
H1499       H  0.54572880  0.18849348  0.13501677     0.19400
H1500       H  0.96191292  0.09654695  0.13471788     0.19400
N1501       N  0.50512361  0.25450280  0.69916663    -0.36900
N1502       N  0.50581969  0.20036951  0.74804159    -0.57500
N1503       N  0.50313277  0.24947225  0.80192416    -0.36900
N1504       N  0.49976138  0.30338854  0.75334114    -0.57500
C1505       C  0.49917221  0.22781562  0.67887454     0.26700
C1506       C  0.49757858  0.28262847  0.68152897     0.26700
C1507       C  0.49676295  0.22052545  0.81858394     0.26600
C1508       C  0.49216029  0.27503215  0.82148317     0.26600
C1509       C  0.51331029  0.18289032  0.71992633     0.35300
C1510       C  0.51460506  0.18061536  0.77426932     0.35300
C1511       C  0.50576660  0.32452938  0.72741900     0.35300
C1512       C  0.50340094  0.32169079  0.78174152     0.35300
C1513       C  0.48802525  0.23914240  0.64781736    -0.22200
C1514       C  0.48739662  0.27372514  0.64935391    -0.22200
C1515       C  0.48125304  0.22772550  0.84898441    -0.22200
C1516       C  0.47846885  0.26222332  0.85086351    -0.22200
C1517       C  0.52684054  0.15183698  0.72825594    -0.23300
C1518       C  0.52795194  0.15050656  0.76276208    -0.23300
C1519       C  0.51287749  0.35652041  0.73943288    -0.23300
C1520       C  0.51163049  0.35464689  0.77386213    -0.23300
C1521       C  0.50569666  0.19372786  0.68697631    -0.18600
C1522       C  0.50171069  0.31606348  0.69313901    -0.18600
C1523       C  0.49661748  0.30957947  0.81444978    -0.18600
C1524       C  0.50749551  0.18822740  0.80821608    -0.18600
H1525       H  0.48160404  0.22412344  0.62605298     0.14300
H1526       H  0.48044464  0.29032294  0.62891728     0.14300
H1527       H  0.47344613  0.21001232  0.86814208     0.14300
H1528       H  0.46804365  0.27630423  0.87167813     0.14300
H1529       H  0.53485446  0.13216851  0.71123902     0.12600
H1530       H  0.53688312  0.12950102  0.77765064     0.12600
H1531       H  0.51782025  0.37906843  0.72498588     0.12600
H1532       H  0.51558483  0.37536069  0.79106407     0.12600
H1533       H  0.51718208  0.25385194  0.72233352     0.25800
H1534       H  0.51817297  0.25176313  0.78065317     0.25800
O1535       O  0.50329520  0.10062771  0.55158554    -0.80500
O1536       O  0.50057714  0.40841290  0.56110115    -0.82000
O1537       O  0.94450296  0.00529399  0.59708915    -0.79000
O1538       O  0.55571573  0.00376093  0.59578709    -0.77400
O1539       O  0.59537588  0.49804396  0.55672310    -0.79200
O1540       O  0.90282754  0.50326105  0.55356137    -0.80100
O1541       O  0.50053690  0.45091614  0.60007153    -0.81500
O1542       O  0.50123506  0.06141077  0.59376302    -0.81800
Eu1543     Eu  0.49909542  0.50399177  0.56909880     2.39200
O1544       O  0.53257689  0.46748777  0.53654167    -0.89300
O1545       O  0.96571902  0.03763975  0.53365957    -0.92900
C1546       C  0.50281983  0.09198619  0.58289169     1.01800
C1547       C  0.50138642  0.41966169  0.59160522     1.01600
C1548       C  0.91356894  0.00419059  0.58714618     1.01600
C1549       C  0.58655474  0.00165083  0.58590640     0.99400
H1550       H  0.94962379  0.45523512  0.54942700     0.29200
O1551       O  0.96401461  0.46870678  0.53523344    -1.01600
H1552       H  0.54979501  0.05068812  0.54624509     0.29200
O1553       O  0.53519394  0.03651067  0.53305316    -1.04200
O1554       O  0.49726814  0.40314775  0.94887931    -0.81400
O1555       O  0.50404895  0.09610304  0.94160303    -0.81000
O1556       O  0.90139575  0.44902136  0.00001483    -0.79400
O1557       O  0.59369880  0.44268755  0.00079591    -0.82700
O1558       O  0.59764331  0.05395244  0.99741929    -0.80600
O1559       O  0.90572084  0.05970631  0.99795614    -0.79200
O1560       O  0.94556910  0.49939087  0.90359138    -0.80800
O1561       O  0.55660937  0.49833339  0.90543959    -0.82700
O1562       O  0.90416638  0.50032126  0.94366418    -0.79400
O1563       O  0.59696687  0.49814901  0.94655001    -0.82100
O1564       O  0.94084912  0.40710206  0.00327097    -0.77800
O1565       O  0.94759810  0.09943050  0.99817241    -0.77900
O1566       O  0.55810094  0.09592469  0.99466073    -0.77500
O1567       O  0.55180812  0.40314257  0.00227832    -0.81000
O1568       O  0.49838511  0.44266466  0.90681466    -0.80400
O1569       O  0.50256255  0.05362443  0.90287285    -0.78800
Eu1570     Eu  0.49778107  0.43274555  0.00316482     2.39800
Eu1571     Eu  0.50171804  0.07043576  0.99771856     2.39600
Eu1572     Eu  0.93122713  0.50323593  0.99931292     2.38400
Eu1573     Eu  0.56802952  0.49902039  0.00123845     2.39900
Eu1574     Eu  0.50057802  0.49923870  0.93239841     2.39800
O1575       O  0.53466047  0.03377885  0.96516434    -0.93200
O1576       O  0.96502591  0.46712968  0.96711817    -0.92100
C1577       C  0.49763017  0.41197094  0.91762970     1.02000
C1578       C  0.50394840  0.08503352  0.91111676     1.00700
C1579       C  0.91013354  0.41779379  0.00215521     1.00100
C1580       C  0.58300648  0.41200426  0.00140509     1.02100
C1581       C  0.58871650  0.08506827  0.99513228     1.01000
C1582       C  0.91639494  0.09043417  0.99769176     0.99900
C1583       C  0.91447469  0.49920195  0.91292787     0.99900
C1584       C  0.58758663  0.49830637  0.91545220     1.02600
H1585       H  0.95268550  0.04935772  0.95027191     0.29900
O1586       O  0.96637350  0.03556573  0.96488927    -1.05300
H1587       H  0.54683196  0.45019793  0.95417998     0.32000
O1588       O  0.53315456  0.46485948  0.96786995    -1.07900
N1589       N  0.74960914  0.99306731  0.80139596    -0.36900
N1590       N  0.69798732  0.99102940  0.75012681    -0.57500
N1591       N  0.74948300  0.99280266  0.69863796    -0.36900
N1592       N  0.80104666  0.99672385  0.75009837    -0.57500
C1593       C  0.72189284  0.00074191  0.81957302     0.26700
C1594       C  0.77671234  0.00254271  0.81969037     0.26700
C1595       C  0.72158880  0.99964310  0.68035162     0.26600
C1596       C  0.77627625  0.00308085  0.68035659     0.26600
C1597       C  0.67893195  0.98433204  0.77742960     0.35300
C1598       C  0.67893406  0.98370820  0.72296826     0.35300
C1599       C  0.82065359  0.99073231  0.77720842     0.35300
C1600       C  0.82056651  0.99169102  0.72280563     0.35300
C1601       C  0.73151500  0.01550134  0.84967484    -0.22200
C1602       C  0.76616783  0.01640534  0.84985186    -0.22200
C1603       C  0.73076766  0.01432259  0.65005523    -0.22200
C1604       C  0.76531181  0.01643625  0.65003875    -0.22200
C1605       C  0.64765784  0.97237073  0.76758870    -0.23300
C1606       C  0.64765495  0.97199467  0.73301557    -0.23300
C1607       C  0.85284779  0.98191687  0.76714464    -0.23300
C1608       C  0.85275086  0.98236228  0.73258404    -0.23300
C1609       C  0.68845037  0.99208231  0.81079872    -0.18600
C1610       C  0.81059780  0.99664652  0.81069223    -0.18600
C1611       C  0.81039215  0.99867116  0.68949150    -0.18600
C1612       C  0.68829621  0.99099844  0.68948698    -0.18600
H1613       H  0.71527445  0.02403433  0.86976077     0.14300
H1614       H  0.78180231  0.02585935  0.87003333     0.14300
H1615       H  0.71431998  0.02236089  0.62987765     0.14300
H1616       H  0.78062137  0.02642800  0.62987221     0.14300
H1617       H  0.62676694  0.96543046  0.78359779     0.12600
H1618       H  0.62675740  0.96476673  0.71710662     0.12600
H1619       H  0.87431710  0.97648778  0.78301987     0.12600
H1620       H  0.87411356  0.97723258  0.71652625     0.12600
H1621       H  0.75019032  0.97832992  0.77979634     0.25800
H1622       H  0.75038453  0.97845348  0.72051469     0.25800
N1623       N  0.75144396  0.19954594  0.99308671    -0.36900
N1624       N  0.80087135  0.25306177  0.99971883    -0.57500
N1625       N  0.74698554  0.30229181  0.99825990    -0.36900
N1626       N  0.69762646  0.24906239  0.99451281    -0.57500
C1627       C  0.77934677  0.18150419  0.00057066     0.26700
C1628       C  0.72460018  0.17935243  0.99859703     0.26700
C1629       C  0.77326670  0.32172496  0.00762299     0.26600
C1630       C  0.71858311  0.31951662  0.00546545     0.26600
C1631       C  0.82149197  0.22694144  0.99266787     0.35300
C1632       C  0.81895638  0.28135709  0.99428937     0.35300
C1633       C  0.67932674  0.22132503  0.98754752     0.35300
C1634       C  0.67708448  0.27566099  0.98943670     0.35300
C1635       C  0.77019777  0.14930047  0.01040279    -0.22200
C1636       C  0.73565775  0.14788574  0.00901654    -0.22200
C1637       C  0.76146971  0.35160735  0.02123755    -0.22200
C1638       C  0.72687388  0.35022495  0.01984975    -0.22200
C1639       C  0.85287262  0.23860656  0.98304651    -0.23300
C1640       C  0.85120833  0.27312439  0.98384108    -0.23300
C1641       C  0.64686400  0.23032164  0.97834663    -0.23300
C1642       C  0.64554975  0.26479584  0.97920437    -0.23300
C1643       C  0.81288589  0.19271822  0.99679292    -0.18600
C1644       C  0.69055068  0.18803299  0.99275433    -0.18600
C1645       C  0.68564554  0.30934823  0.99669788    -0.18600
C1646       C  0.80740547  0.31437289  0.00094933    -0.18600
H1647       H  0.78670760  0.12882874  0.01755936     0.13500
H1648       H  0.72049926  0.12602328  0.01482033     0.14300
H1649       H  0.77625668  0.37259143  0.03033616     0.14300
H1650       H  0.70980026  0.36991104  0.02777103     0.14300
H1651       H  0.87465937  0.22377986  0.97618989     0.12600
H1652       H  0.87153061  0.29018054  0.97770499     0.12600
H1653       H  0.62607513  0.21383710  0.97222528     0.12600
H1654       H  0.62362216  0.28001869  0.97372744     0.12600
H1655       H  0.75096076  0.22295912  0.98144925     0.25800
H1656       H  0.74847687  0.28078803  0.98348322     0.25800
C1657       C  0.83246274  0.34225019  0.00168565    -0.06400
C1658       C  0.85805311  0.34040858  0.52349484    -0.17600
C1659       C  0.88321218  0.36485478  0.52535233     0.10700
C1660       C  0.88289196  0.39241289  0.00361789    -0.06400
C1661       C  0.85615606  0.39463931  0.98059471    -0.17600
C1662       C  0.83147510  0.36950969  0.97878450     0.10800
S1663       S  0.91335861  0.36071398  0.55884852    -0.32600
S1664       S  0.80022958  0.37311569  0.94599851    -0.32600
H1665       H  0.79626378  0.33834907  0.94075123     0.28800
H1666       H  0.91876889  0.39541197  0.56298467     0.28800
H1667       H  0.85787785  0.32005279  0.54167236     0.19400
H1668       H  0.85520968  0.41542331  0.96300069     0.19400
C1669       C  0.89092982  0.11737746  0.99642084    -0.06400
C1670       C  0.88814725  0.14012584  0.52229563    -0.17600
C1671       C  0.86305793  0.16489295  0.52342235     0.10700
C1672       C  0.84023438  0.16712205  0.99736643    -0.06400
C1673       C  0.84365072  0.14558013  0.96969095    -0.17600
C1674       C  0.86868786  0.12084244  0.96893105     0.10800
S1675       S  0.86285691  0.19301619  0.55898935    -0.32600
S1676       S  0.87120662  0.09482013  0.93199547    -0.32600
H1677       H  0.90626069  0.09024318  0.93305666     0.28800
H1678       H  0.82774443  0.19722564  0.56022892     0.28800
H1679       H  0.90662861  0.13889524  0.54232696     0.19400
H1680       H  0.82668714  0.14816214  0.94848382     0.19400
C1681       C  0.60849417  0.38510290  0.00042061    -0.06400
C1682       C  0.63397200  0.38718152  0.97607964    -0.17600
C1683       C  0.65840748  0.36203545  0.97320732     0.10700
C1684       C  0.65857770  0.33508706  0.99639418    -0.06400
C1685       C  0.63330392  0.33279773  0.51903975    -0.17600
C1686       C  0.60809218  0.35711308  0.52173397     0.10800
S1687       S  0.68817398  0.36543693  0.93911734    -0.32600
S1688       S  0.57653384  0.35065586  0.55363449    -0.32600
H1689       H  0.57123368  0.38490882  0.56021933     0.28800
H1690       H  0.69458619  0.33079387  0.93583781     0.28800
H1691       H  0.63420317  0.40803363  0.95847702     0.19400
H1692       H  0.63324083  0.31152650  0.53613536     0.19400
C1693       C  0.66485178  0.16105293  0.99385681    -0.06400
C1694       C  0.65213892  0.14862152  0.96340829    -0.17600
C1695       C  0.62760218  0.12342385  0.96303521     0.10700
C1696       C  0.61563798  0.11024917  0.99372323    -0.06400
C1697       C  0.62810548  0.12256577  0.52327044    -0.17600
C1698       C  0.65181337  0.14851402  0.52355424     0.10800
S1699       S  0.61252593  0.10925098  0.92278225    -0.32600
S1700       S  0.66631699  0.16296156  0.56409529    -0.32600
H1701       H  0.67630980  0.19537138  0.55417020     0.28800
H1702       H  0.60768692  0.07565420  0.93271502     0.28800
H1703       H  0.66133713  0.15876017  0.93983246     0.19400
H1704       H  0.61965799  0.11198402  0.54689034     0.19400
C1705       C  0.88876979  0.49748722  0.88635346    -0.06400
C1706       C  0.87793861  0.02705999  0.87167224    -0.17600
C1707       C  0.85331089  0.02793636  0.84652465     0.10700
C1708       C  0.83681762  0.99779719  0.83732178    -0.06400
C1709       C  0.84867295  0.46713661  0.85163847    -0.17600
C1710       C  0.87327462  0.46691395  0.87687283     0.10800
S1711       S  0.84429718  0.06852864  0.82795450    -0.32600
S1712       S  0.88306336  0.42681908  0.89596023    -0.32600
H1713       H  0.91389557  0.43550812  0.91082207     0.28800
H1714       H  0.82123380  0.05864360  0.80319292     0.28800
H1715       H  0.89016764  0.05019631  0.87884959     0.19400
H1716       H  0.83657174  0.44373728  0.84456985     0.19400
C1717       C  0.61436478  0.49775697  0.88945600    -0.06400
C1718       C  0.64093301  0.47463511  0.89302430    -0.17600
C1719       C  0.66525184  0.47062372  0.86781065     0.10700
C1720       C  0.66201052  0.99271309  0.83743096    -0.06400
C1721       C  0.63594432  0.01643634  0.83485072    -0.17600
C1722       C  0.61095520  0.01897435  0.85952048     0.10800
S1723       S  0.69595712  0.43761689  0.87330718    -0.32600
S1724       S  0.57943526  0.05121725  0.85357402    -0.32600
H1725       H  0.57226756  0.05650771  0.88766326     0.28800
H1726       H  0.69899674  0.42990137  0.83894522     0.28800
H1727       H  0.64187297  0.45841952  0.91493913     0.19400
H1728       H  0.63532989  0.03345025  0.81353282     0.19400
C1729       C  0.66164948  0.99236113  0.66317547    -0.06400
C1730       C  0.63666996  0.01720178  0.66578960    -0.17600
C1731       C  0.61233410  0.02139954  0.64070650     0.10700
C1732       C  0.61286620  0.00028664  0.61209687    -0.06400
C1733       C  0.63475325  0.47096825  0.61228829    -0.17600
C1734       C  0.65884160  0.46601805  0.63751524     0.10800
S1735       S  0.58215959  0.05490850  0.64627785    -0.32600
S1736       S  0.68639567  0.43015130  0.63359370    -0.32600
H1737       H  0.69125043  0.42527134  0.66827159     0.28800
H1738       H  0.57946384  0.06306887  0.61197175     0.28800
H1739       H  0.63657003  0.03391371  0.68731205     0.19400
H1740       H  0.63343876  0.45325704  0.59161079     0.19400
C1741       C  0.83651296  0.00157517  0.66283622    -0.06400
C1742       C  0.83748766  0.47295644  0.63587549    -0.17600
C1743       C  0.86123251  0.47494645  0.61010426     0.10700
C1744       C  0.88713077  0.00258030  0.61311436    -0.06400
C1745       C  0.88734052  0.02624537  0.63928961    -0.17600
C1746       C  0.86180018  0.02660742  0.66353716     0.10800
S1747       S  0.86120446  0.44209353  0.57902192    -0.32600
S1748       S  0.86208963  0.06025016  0.69394853    -0.32600
H1749       H  0.82689787  0.06229188  0.69723224     0.28800
H1750       H  0.85274858  0.46411507  0.55261855     0.28800
H1751       H  0.81980049  0.45218837  0.63620098     0.19400
H1752       H  0.90682987  0.04531812  0.64013655     0.19400
C1753       C  0.50556792  0.11037037  0.88378762    -0.06400
C1754       C  0.52711225  0.13816675  0.88761091    -0.17600
C1755       C  0.52977559  0.16283202  0.86258193     0.10700
C1756       C  0.50913835  0.16077202  0.83367747    -0.06400
C1757       C  0.98614718  0.13360283  0.83089989    -0.17600
C1758       C  0.98376819  0.10850514  0.85540815     0.10800
S1759       S  0.56018507  0.19600224  0.86882559    -0.32600
S1760       S  0.95230833  0.07652291  0.84926903    -0.32600
H1761       H  0.94296364  0.07540175  0.88331026     0.28800
H1762       H  0.56624566  0.20210779  0.83452797     0.28800
H1763       H  0.54251784  0.14035331  0.90999352     0.19400
H1764       H  0.96940488  0.13275769  0.80938042     0.19400
C1765       C  0.49722801  0.38488630  0.89225903    -0.06400
C1766       C  0.97049399  0.38455435  0.86830056    -0.17600
C1767       C  0.96836696  0.35891591  0.84425488     0.10700
C1768       C  0.49453556  0.33414818  0.84264469    -0.06400
C1769       C  0.52035461  0.33431036  0.86675934    -0.17600
C1770       C  0.52201824  0.35936316  0.89145841     0.10800
S1771       S  0.93199954  0.35840578  0.81710488    -0.32600
S1772       S  0.55734729  0.35837341  0.91999502    -0.32600
H1773       H  0.56098693  0.39348945  0.92249596     0.28800
H1774       H  0.93120034  0.32325153  0.81301751     0.28800
H1775       H  0.95093813  0.40350746  0.86927242     0.19400
H1776       H  0.54002748  0.31544268  0.86555837     0.19400
C1777       C  0.50099216  0.34383572  0.66816300    -0.06400
C1778       C  0.53151577  0.35895989  0.65892972    -0.17600
C1779       C  0.53249733  0.38505569  0.63528595     0.10700
C1780       C  0.50236673  0.39485233  0.61899390    -0.06400
C1781       C  0.96997482  0.37814003  0.62630551    -0.17600
C1782       C  0.96822552  0.35341611  0.65121616     0.10800
S1783       S  0.57281719  0.40494975  0.62845838    -0.32600
S1784       S  0.92718351  0.33698052  0.66159453    -0.32600
H1785       H  0.93449187  0.32907653  0.69525639     0.28800
H1786       H  0.56233604  0.43130205  0.60752281     0.28800
H1787       H  0.55469709  0.35067535  0.67072008     0.19400
H1788       H  0.94698491  0.38681676  0.61470088     0.19400
C1789       C  0.50397247  0.16809228  0.65971214    -0.06400
C1790       C  0.52824981  0.16878905  0.63412927    -0.17600
C1791       C  0.52839431  0.14461525  0.60852970     0.10700
C1792       C  0.50385525  0.11882000  0.60853560    -0.06400
C1793       C  0.97829381  0.11618867  0.63546038    -0.17600
C1794       C  0.97716932  0.14081027  0.66050971     0.10800
S1795       S  0.56120611  0.14760153  0.57745472    -0.32600
S1796       S  0.94410745  0.13776724  0.69139817    -0.32600
H1797       H  0.94015403  0.17267183  0.69573075     0.28800
H1798       H  0.56440752  0.11277873  0.57229439     0.28800
H1799       H  0.54750274  0.18811125  0.63440187     0.19400
H1800       H  0.95998336  0.09596109  0.63590383     0.19400
N1801       N  0.50316977  0.75407067  0.20006733    -0.36900
N1802       N  0.50468293  0.69985071  0.24944668    -0.57500
N1803       N  0.50280780  0.74904450  0.30307903    -0.36900
N1804       N  0.49837187  0.80309248  0.25390856    -0.57500
C1805       C  0.49614246  0.72728507  0.18016380     0.26700
C1806       C  0.49640542  0.78231950  0.18217601     0.26700
C1807       C  0.49806817  0.72007934  0.32035100     0.26600
C1808       C  0.49156508  0.77450670  0.32267255     0.26600
C1809       C  0.51040123  0.68203745  0.22112890     0.35300
C1810       C  0.51385297  0.67988107  0.27540488     0.35300
C1811       C  0.50432752  0.82438111  0.22802081     0.35300
C1812       C  0.50082100  0.82152163  0.28238416     0.35300
C1813       C  0.48499100  0.73868987  0.14913510    -0.22200
C1814       C  0.48568001  0.77332525  0.15020831    -0.22200
C1815       C  0.48370150  0.72718677  0.35130292    -0.22200
C1816       C  0.47958533  0.76154193  0.35275757    -0.22200
C1817       C  0.52326577  0.65057620  0.22908968    -0.23300
C1818       C  0.52568265  0.64929425  0.26351265    -0.23300
C1819       C  0.51019067  0.85657033  0.24016438    -0.23300
C1820       C  0.50819700  0.85470170  0.27455311    -0.23300
C1821       C  0.50191388  0.69296822  0.18838273    -0.18600
C1822       C  0.50108122  0.81588873  0.19358498    -0.18600
C1823       C  0.49423102  0.80925278  0.31516231    -0.18600
C1824       C  0.50823436  0.68768556  0.30959627    -0.18600
H1825       H  0.47777920  0.72365056  0.12763320     0.14300
H1826       H  0.47904714  0.78986859  0.12963045     0.14300
H1827       H  0.47714641  0.70949726  0.37094691     0.14300
H1828       H  0.46933526  0.77544183  0.37377583     0.14300
H1829       H  0.52992911  0.63055216  0.21190415     0.12600
H1830       H  0.53437725  0.62799019  0.27811958     0.12600
H1831       H  0.51469175  0.87928004  0.22583090     0.12600
H1832       H  0.51123340  0.87556993  0.29174896     0.12600
H1833       H  0.51535658  0.75328694  0.22315412     0.25800
H1834       H  0.51667019  0.75152423  0.28106740     0.25800
O1835       O  0.50176545  0.59875355  0.05406293    -0.80500
O1836       O  0.49953474  0.90938938  0.06181075    -0.82000
O1837       O  0.94260926  0.50389297  0.09558772    -0.79000
O1838       O  0.55441897  0.50221166  0.09691692    -0.77400
O1839       O  0.59558663  0.00038268  0.05562505    -0.79200
O1840       O  0.90393662  0.00437097  0.05539504    -0.80100
O1841       O  0.50086331  0.95215945  0.10043640    -0.81500
O1842       O  0.49924168  0.55912065  0.09579835    -0.81800
Eu1843     Eu  0.49994382  0.00548291  0.06905940     2.39200
O1844       O  0.53307127  0.96874446  0.03658128    -0.89300
O1845       O  0.96567775  0.53727963  0.03345947    -0.92900
C1846       C  0.50068013  0.58982245  0.08529595     1.01800
C1847       C  0.50076644  0.92074903  0.09225594     1.01600
C1848       C  0.91184666  0.50364141  0.08504829     1.01600
C1849       C  0.58533721  0.49920516  0.08742267     0.99400
H1850       H  0.95104881  0.95667605  0.05086218     0.29200
O1851       O  0.96518469  0.96991751  0.03617694    -1.01600
H1852       H  0.54927370  0.54931266  0.04827873     0.29200
O1853       O  0.53494500  0.53544187  0.03446930    -1.04200
O1854       O  0.49561049  0.90284866  0.45035969    -0.81400
O1855       O  0.50463416  0.59495468  0.44257581    -0.81000
O1856       O  0.90210859  0.94784345  0.50190206    -0.79400
O1857       O  0.59423585  0.94389243  0.50035478    -0.82700
O1858       O  0.59747075  0.55336108  0.49812339    -0.80600
O1859       O  0.90513096  0.55868386  0.49692383    -0.79200
O1860       O  0.94366795  0.99762845  0.40470220    -0.80800
O1861       O  0.55370610  0.99789676  0.40378825    -0.82700
O1862       O  0.90292727  0.99928106  0.44541750    -0.79400
O1863       O  0.59488193  0.99862620  0.44410522    -0.82100
O1864       O  0.94221269  0.90658641  0.50517430    -0.77800
O1865       O  0.94667050  0.59868226  0.49869351    -0.77900
O1866       O  0.55774362  0.59522629  0.49660919    -0.77500
O1867       O  0.55274294  0.90405279  0.50308027    -0.81000
O1868       O  0.49578226  0.94176527  0.40775812    -0.80400
O1869       O  0.50339465  0.55283074  0.40330217    -0.78800
Eu1870     Eu  0.49822077  0.93320895  0.50418414     2.39800
Eu1871     Eu  0.50155647  0.56942064  0.49878662     2.39600
Eu1872     Eu  0.93098674  0.00262716  0.50068341     2.38400
Eu1873     Eu  0.56785106  0.99976513  0.49984538     2.39900
Eu1874     Eu  0.49875542  0.99855937  0.43248152     2.39800
O1875       O  0.53470277  0.53284764  0.46611907    -0.93200
O1876       O  0.96471878  0.96653427  0.46839755    -0.92100
C1877       C  0.49509402  0.91124005  0.41898694     1.02000
C1878       C  0.50470084  0.58412053  0.41198572     1.00700
C1879       C  0.91133919  0.91673238  0.50403373     1.00100
C1880       C  0.58390590  0.91312044  0.50170858     1.02100
C1881       C  0.58839430  0.58448734  0.49639953     1.01000
C1882       C  0.91553868  0.58946968  0.49733540     0.99900
C1883       C  0.91272450  0.99767786  0.41451285     0.99900
C1884       C  0.58482950  0.99844475  0.41320005     1.02600
H1885       H  0.95308570  0.54939690  0.45009940     0.29900
O1886       O  0.96660278  0.53547372  0.46474981    -1.05300
H1887       H  0.54604981  0.95002224  0.45383397     0.32000
O1888       O  0.53259604  0.96485172  0.46758282    -1.07900
N1889       N  0.75064275  0.48923197  0.30086468    -0.36900
N1890       N  0.69847460  0.48523844  0.25029487    -0.57500
N1891       N  0.74929273  0.48675242  0.19788482    -0.36900
N1892       N  0.80139422  0.49285587  0.24880435    -0.57500
C1893       C  0.72298422  0.49638367  0.31937776     0.26700
C1894       C  0.77777644  0.49956990  0.31868115     0.26700
C1895       C  0.72107770  0.49303725  0.17985176     0.26600
C1896       C  0.77575196  0.49704830  0.17911527     0.26600
C1897       C  0.67980939  0.47863582  0.27791318     0.35300
C1898       C  0.67911915  0.47759601  0.22342837     0.35300
C1899       C  0.82155417  0.48832768  0.27578043     0.35300
C1900       C  0.82078591  0.48792202  0.22141311     0.35300
C1901       C  0.73271998  0.51165117  0.34919925    -0.22200
C1902       C  0.76732020  0.51330105  0.34891958    -0.22200
C1903       C  0.72976120  0.50715524  0.14913923    -0.22200
C1904       C  0.76428152  0.50961039  0.14865053    -0.22200
C1905       C  0.64854907  0.46625530  0.26851815    -0.23300
C1906       C  0.64807539  0.46571634  0.23394929    -0.23300
C1907       C  0.85395880  0.48053075  0.26551204    -0.23300
C1908       C  0.85344511  0.48017372  0.23096928    -0.23300
C1909       C  0.68952537  0.48707573  0.31111942    -0.18600
C1910       C  0.81171200  0.49464124  0.30924862    -0.18600
C1911       C  0.81004234  0.49383669  0.18811671    -0.18600
C1912       C  0.68786688  0.48483189  0.18977839    -0.18600
H1913       H  0.71662126  0.52006731  0.36944152     0.14300
H1914       H  0.78297726  0.52324325  0.36884414     0.14300
H1915       H  0.71299591  0.51478594  0.12906686     0.14300
H1916       H  0.77923373  0.51950713  0.12816886     0.14300
H1917       H  0.62791275  0.45923170  0.28481288     0.12600
H1918       H  0.62702979  0.45826144  0.21833772     0.12600
H1919       H  0.87583485  0.47637389  0.28121478     0.12600
H1920       H  0.87481459  0.47560702  0.21474660     0.12600
H1921       H  0.75127990  0.47440252  0.27933855     0.25800
H1922       H  0.75063259  0.47306283  0.22015406     0.25800
N1923       N  0.75004759  0.69909920  0.49267936    -0.36900
N1924       N  0.80088546  0.75162054  0.49726002    -0.57500
N1925       N  0.74833462  0.80195873  0.49535772    -0.36900
N1926       N  0.69754532  0.74972147  0.49324685    -0.57500
C1927       C  0.77762634  0.68052044  0.50001150     0.26700
C1928       C  0.72279523  0.67953441  0.49847775     0.26700
C1929       C  0.77515678  0.82042392  0.50528827     0.26600
C1930       C  0.72036477  0.81938552  0.50380796     0.26600
C1931       C  0.82061596  0.72487782  0.49018535     0.35300
C1932       C  0.81965017  0.77932603  0.49118737     0.35300
C1933       C  0.67863344  0.72231849  0.48648144     0.35300
C1934       C  0.67782842  0.77678815  0.48741951     0.35300
C1935       C  0.76782312  0.64857241  0.51012528    -0.22200
C1936       C  0.73322377  0.64790230  0.50902598    -0.22200
C1937       C  0.76414419  0.84982480  0.52046308    -0.22200
C1938       C  0.72950780  0.84916852  0.51953796    -0.22200
C1939       C  0.85207542  0.73558125  0.47963588    -0.23300
C1940       C  0.85142679  0.77014491  0.48014270    -0.23300
C1941       C  0.64662977  0.73196491  0.47646910    -0.23300
C1942       C  0.64623254  0.76653138  0.47667757    -0.23300
C1943       C  0.81137823  0.69100617  0.49566674    -0.18600
C1944       C  0.68893775  0.68885588  0.49251397    -0.18600
C1945       C  0.68705174  0.81026895  0.49508280    -0.18600
C1946       C  0.80912804  0.81255534  0.49821475    -0.18600
H1947       H  0.78392053  0.62773273  0.51715060     0.13500
H1948       H  0.71759683  0.62640117  0.51496892     0.14300
H1949       H  0.77947966  0.86996164  0.53051222     0.14300
H1950       H  0.71295112  0.86871343  0.52876862     0.14300
H1951       H  0.87333507  0.72008440  0.47259987     0.12600
H1952       H  0.87210907  0.78658644  0.47355090     0.12600
H1953       H  0.62560062  0.71582276  0.47022356     0.12600
H1954       H  0.62482216  0.78222827  0.47053605     0.12600
H1955       H  0.75001210  0.72244663  0.48091626     0.25800
H1956       H  0.74914899  0.78097325  0.47974536     0.25800
C1957       C  0.83488558  0.83988812  0.49963151    -0.06400
C1958       C  0.86117071  0.83882295  0.02581475    -0.17600
C1959       C  0.88622733  0.86346219  0.02746889     0.10700
C1960       C  0.88453475  0.89078209  0.50456327    -0.06400
C1961       C  0.85730693  0.89419911  0.48227958    -0.17600
C1962       C  0.83318168  0.86874487  0.47883748     0.10800
S1963       S  0.91834368  0.85797874  0.05901053    -0.32600
S1964       S  0.80182976  0.87388245  0.44640508    -0.32600
H1965       H  0.79989319  0.83951515  0.43816214     0.28800
H1966       H  0.92332703  0.89246396  0.06476472     0.28800
H1967       H  0.86222433  0.81764838  0.04299963     0.19400
H1968       H  0.85564173  0.91620212  0.46627068     0.19400
C1969       C  0.88975745  0.61611813  0.49589207    -0.06400
C1970       C  0.88882586  0.63983432  0.02462252    -0.17600
C1971       C  0.86323307  0.66401751  0.02661262     0.10700
C1972       C  0.83838520  0.66511111  0.49684815    -0.06400
C1973       C  0.83999469  0.64141294  0.47084333    -0.17600
C1974       C  0.86538321  0.61710314  0.47005201     0.10800
S1975       S  0.86302413  0.69141895  0.06278848    -0.32600
S1976       S  0.86604654  0.58882323  0.43476284    -0.32600
H1977       H  0.90133112  0.58723791  0.43257337     0.28800
H1978       H  0.82814030  0.69723140  0.06335444     0.28800
H1979       H  0.90722442  0.63812617  0.04469784     0.19400
H1980       H  0.82155078  0.64220026  0.45075612     0.19400
C1981       C  0.60986453  0.88647360  0.50079122    -0.06400
C1982       C  0.63676498  0.89023718  0.47821036    -0.17600
C1983       C  0.66153461  0.86544157  0.47500482     0.10700
C1984       C  0.66035176  0.83660037  0.49582105    -0.06400
C1985       C  0.63394718  0.83438078  0.02506731    -0.17600
C1986       C  0.60831014  0.85845025  0.02637590     0.10800
S1987       S  0.69352361  0.87189891  0.44346563    -0.32600
S1988       S  0.57542826  0.85174380  0.05684144    -0.32600
H1989       H  0.56986733  0.88596154  0.06324172     0.28800
H1990       H  0.69902540  0.83764218  0.43656557     0.28800
H1991       H  0.63795524  0.91225816  0.46213431     0.19400
H1992       H  0.63340746  0.81335402  0.04245342     0.19400
C1993       C  0.66276444  0.66226442  0.49383780    -0.06400
C1994       C  0.65222939  0.64727303  0.46371748    -0.17600
C1995       C  0.62847220  0.62126564  0.46376322     0.10700
C1996       C  0.61509370  0.60991279  0.49464070    -0.06400
C1997       C  0.62760181  0.62198229  0.02970779    -0.17600
C1998       C  0.65084455  0.64838793  0.03084596     0.10800
S1999       S  0.61599061  0.60416707  0.42367053    -0.32600
S2000       S  0.66336456  0.66333770  0.07186963    -0.32600
H2001       H  0.67554593  0.69501737  0.06208711     0.28800
H2002       H  0.60794877  0.57178560  0.43529917     0.28800
H2003       H  0.66266842  0.65589199  0.44006302     0.19400
H2004       H  0.61857130  0.61115563  0.05299820     0.19400
C2005       C  0.88661546  0.99611983  0.38825237    -0.06400
C2006       C  0.87808918  0.52667659  0.37054370    -0.17600
C2007       C  0.85344479  0.52704028  0.34537652     0.10700
C2008       C  0.83820686  0.49644648  0.33557219    -0.06400
C2009       C  0.84612421  0.96627895  0.35347051    -0.17600
C2010       C  0.87093199  0.96569590  0.37857958     0.10800
S2011       S  0.84229472  0.56753155  0.32783552    -0.32600
S2012       S  0.88102061  0.92532106  0.39696592    -0.32600
H2013       H  0.91123501  0.93410495  0.41299799     0.28800
H2014       H  0.82479420  0.55636649  0.29932588     0.28800
H2015       H  0.88912082  0.55019122  0.37838730     0.19400
H2016       H  0.83403273  0.94296883  0.34610370     0.19400
C2017       C  0.61106460  0.99826110  0.38676442    -0.06400
C2018       C  0.63721774  0.97460797  0.38937900    -0.17600
C2019       C  0.66183827  0.97166715  0.36437452     0.10700
C2020       C  0.66317605  0.48849047  0.33798260    -0.06400
C2021       C  0.63611872  0.51089799  0.33401091    -0.17600
C2022       C  0.61146565  0.51457500  0.35888499     0.10800
S2023       S  0.69247273  0.93844088  0.36908249    -0.32600
S2024       S  0.57835692  0.54462333  0.35072464    -0.32600
H2025       H  0.57429878  0.55482015  0.38425880     0.28800
H2026       H  0.69788329  0.93330503  0.33454870     0.28800
H2027       H  0.63779057  0.95740278  0.41054709     0.19400
H2028       H  0.63441473  0.52602509  0.31137598     0.19400
C2029       C  0.66054491  0.48685846  0.16418291    -0.06400
C2030       C  0.63670995  0.51281640  0.16693798    -0.17600
C2031       C  0.61219304  0.51787048  0.14214275     0.10700
C2032       C  0.61140160  0.49651944  0.11375008    -0.06400
C2033       C  0.63764327  0.97739531  0.11035936    -0.17600
C2034       C  0.66252937  0.97436441  0.13505189     0.10800
S2035       S  0.58369162  0.55281251  0.14755067    -0.32600
S2036       S  0.69246244  0.94050422  0.13073715    -0.32600
H2037       H  0.69703083  0.93503586  0.16536220     0.28800
H2038       H  0.58166555  0.56098679  0.11320062     0.28800
H2039       H  0.63776319  0.52978084  0.18823474     0.19400
H2040       H  0.63706065  0.95940406  0.08988983     0.19400
C2041       C  0.83584249  0.49770097  0.16135861    -0.06400
C2042       C  0.83605846  0.98014564  0.13623731    -0.17600
C2043       C  0.86044972  0.98024530  0.11096784     0.10700
C2044       C  0.88502382  0.50176366  0.11049978    -0.06400
C2045       C  0.88331015  0.52648319  0.13558444    -0.17600
C2046       C  0.85837664  0.52524967  0.16042937     0.10800
S2047       S  0.85658576  0.94897405  0.07838146    -0.32600
S2048       S  0.85622777  0.55972063  0.18982192    -0.32600
H2049       H  0.82118057  0.55836820  0.19452048     0.28800
H2050       H  0.89121823  0.94197966  0.07714546     0.28800
H2051       H  0.81585011  0.96184600  0.13516446     0.19400
H2052       H  0.90097291  0.54727610  0.13531786     0.19400
C2053       C  0.50615850  0.60962065  0.38495394    -0.06400
C2054       C  0.52927164  0.63619830  0.38782552    -0.17600
C2055       C  0.53175056  0.66099478  0.36290288     0.10700
C2056       C  0.50979366  0.66002448  0.33490831    -0.06400
C2057       C  0.98271265  0.63412186  0.33287285    -0.17600
C2058       C  0.98162795  0.60899632  0.35743704     0.10800
S2059       S  0.56333036  0.69315848  0.36830321    -0.32600
S2060       S  0.95051708  0.57650805  0.35230296    -0.32600
H2061       H  0.94289918  0.57417881  0.38671803     0.28800
H2062       H  0.56851691  0.69905695  0.33383446     0.28800
H2063       H  0.54587864  0.63738112  0.40942215     0.19400
H2064       H  0.96504219  0.63318058  0.31211022     0.19400
C2065       C  0.49401874  0.88390249  0.39388789    -0.06400
C2066       C  0.97002285  0.88507803  0.36876360    -0.17600
C2067       C  0.96826130  0.86022545  0.34389615     0.10700
C2068       C  0.49164925  0.83387404  0.34341901    -0.06400
C2069       C  0.51667896  0.83317870  0.36836565    -0.17600
C2070       C  0.51816303  0.85779014  0.39346548     0.10800
S2071       S  0.93344071  0.86215756  0.31478871    -0.32600
S2072       S  0.55257977  0.85545567  0.42302175    -0.32600
H2073       H  0.55779230  0.89039658  0.42518678     0.28800
H2074       H  0.93242880  0.82752220  0.30768106     0.28800
H2075       H  0.95113748  0.90474499  0.36925202     0.19400
H2076       H  0.53598732  0.81391837  0.36753385     0.19400
C2077       C  0.50047004  0.84391295  0.16851240    -0.06400
C2078       C  0.53070379  0.86041207  0.16042286    -0.17600
C2079       C  0.53150999  0.88687703  0.13699917     0.10700
C2080       C  0.50160603  0.89580951  0.11977048    -0.06400
C2081       C  0.97050610  0.88140176  0.12940885    -0.17600
C2082       C  0.96897872  0.85621687  0.15396960     0.10800
S2083       S  0.57122675  0.90853138  0.13172044    -0.32600
S2084       S  0.92785110  0.84144677  0.16633760    -0.32600
H2085       H  0.93658822  0.83170297  0.19917177     0.28800
H2086       H  0.56234106  0.93053385  0.10561989     0.28800
H2087       H  0.55377951  0.85291553  0.17291362     0.19400
H2088       H  0.94733974  0.89077280  0.11860668     0.19400
C2089       C  0.49987956  0.66717555  0.16116254    -0.06400
C2090       C  0.52412086  0.66783924  0.13557186    -0.17600
C2091       C  0.52504015  0.64299015  0.11068020     0.10700
C2092       C  0.50116012  0.61661858  0.11109827    -0.06400
C2093       C  0.97521427  0.61603959  0.13583130    -0.17600
C2094       C  0.97327657  0.64146911  0.16010943     0.10800
S2095       S  0.55828520  0.64564576  0.08007603    -0.32600
S2096       S  0.93887170  0.63965988  0.18960889    -0.32600
H2097       H  0.93629969  0.67462649  0.19440497     0.28800
H2098       H  0.56275108  0.61069816  0.07694354     0.28800
H2099       H  0.54300319  0.68752383  0.13547305     0.19400
H2100       H  0.95654549  0.59613921  0.13588890     0.19400
N2101       N  0.50030633  0.75429653  0.70037135    -0.36900
N2102       N  0.50199253  0.70052588  0.74990348    -0.57500
N2103       N  0.50246536  0.75037875  0.80336426    -0.36900
N2104       N  0.49776161  0.80396688  0.75404757    -0.57500
C2105       C  0.49315097  0.72746216  0.68058595     0.26700
C2106       C  0.49311213  0.78249508  0.68259142     0.26700
C2107       C  0.49677476  0.72172200  0.82080574     0.26600
C2108       C  0.49258804  0.77630916  0.82305322     0.26600
C2109       C  0.50771439  0.68247952  0.72168832     0.35300
C2110       C  0.51114614  0.68075822  0.77604453     0.35300
C2111       C  0.50367354  0.82471004  0.72775617     0.35300
C2112       C  0.50234033  0.82248977  0.78218149     0.35300
C2113       C  0.48137866  0.73880584  0.64974794    -0.22200
C2114       C  0.48169806  0.77347560  0.65087989    -0.22200
C2115       C  0.48311958  0.72951482  0.85192821    -0.22200
C2116       C  0.48057432  0.76400107  0.85338091    -0.22200
C2117       C  0.52052221  0.65107471  0.72992952    -0.23300
C2118       C  0.52284782  0.65003936  0.76437638    -0.23300
C2119       C  0.51174030  0.85665588  0.73930206    -0.23300
C2120       C  0.51103019  0.85519497  0.77377981    -0.23300
C2121       C  0.49935558  0.69319940  0.68878413    -0.18600
C2122       C  0.49866900  0.81601927  0.69361363    -0.18600
C2123       C  0.49627787  0.81081106  0.81520458    -0.18600
C2124       C  0.50600811  0.68901228  0.81024914    -0.18600
H2125       H  0.47396893  0.72370969  0.62835275     0.14300
H2126       H  0.47458029  0.79007080  0.63049145     0.14300
H2127       H  0.47616909  0.71218450  0.87175151     0.14300
H2128       H  0.47127040  0.77838912  0.87451226     0.14300
H2129       H  0.52722628  0.63092162  0.71291524     0.12600
H2130       H  0.53158089  0.62886381  0.77914218     0.12600
H2131       H  0.51695749  0.87892227  0.72451725     0.12600
H2132       H  0.51581871  0.87597042  0.79069841     0.12600
H2133       H  0.51303264  0.75359715  0.72317109     0.25800
H2134       H  0.51609926  0.75222698  0.78113845     0.25800
O2135       O  0.50131020  0.59919819  0.55346413    -0.80500
O2136       O  0.49964692  0.90883500  0.56151773    -0.82000
O2137       O  0.94269238  0.50367895  0.59523023    -0.79000
O2138       O  0.55453287  0.50289663  0.59704516    -0.77400
O2139       O  0.59607566  0.99981052  0.55492350    -0.79200
O2140       O  0.90391959  0.00368457  0.55615625    -0.80100
O2141       O  0.50017386  0.95161182  0.60016187    -0.81500
O2142       O  0.49849012  0.55981532  0.59540551    -0.81800
Eu2143     Eu  0.50017593  0.00488423  0.56885469     2.39200
O2144       O  0.53341817  0.96824308  0.53623672    -0.89300
O2145       O  0.96563151  0.53690785  0.53314616    -0.92900
C2146       C  0.49988862  0.59047265  0.58478303     1.01800
C2147       C  0.50024018  0.92021843  0.59196861     1.01600
C2148       C  0.91193945  0.50304885  0.58467340     1.01600
C2149       C  0.58549227  0.49999270  0.58756305     0.99400
H2150       H  0.95066343  0.95579591  0.55115973     0.29200
O2151       O  0.96468054  0.96919191  0.53649899    -1.01600
H2152       H  0.54937601  0.54994641  0.54794151     0.29200
O2153       O  0.53504691  0.53585001  0.53436127    -1.04200
O2154       O  0.49632738  0.90393871  0.95026756    -0.81400
O2155       O  0.50448969  0.59610319  0.94364379    -0.81000
O2156       O  0.90278521  0.94836093  0.00196226    -0.79400
O2157       O  0.59393005  0.94392706  0.00244353    -0.82700
O2158       O  0.59753108  0.55331078  0.00052167    -0.80600
O2159       O  0.90527584  0.55950704  0.99761661    -0.79200
O2160       O  0.94398283  0.99786673  0.90427607    -0.80800
O2161       O  0.55453671  0.99753811  0.90458632    -0.82700
O2162       O  0.90330275  0.99999635  0.94500494    -0.79400
O2163       O  0.59553295  0.99779506  0.94507606    -0.82100
O2164       O  0.94262180  0.90682041  0.00530701    -0.77800
O2165       O  0.94706061  0.59924488  0.99931479    -0.77900
O2166       O  0.55792991  0.59530486  0.99893007    -0.77500
O2167       O  0.55232760  0.90419047  0.00528167    -0.81000
O2168       O  0.49607492  0.94301709  0.90779264    -0.80400
O2169       O  0.50312134  0.55432492  0.90400935    -0.78800
Eu2170     Eu  0.49800244  0.93370242  0.00445639     2.39800
Eu2171     Eu  0.50165453  0.56958341  0.99931880     2.39600
Eu2172     Eu  0.93155746  0.00327766  0.00026957     2.38400
Eu2173     Eu  0.56792351  0.99996089  0.00045455     2.39900
Eu2174     Eu  0.49939971  0.99934434  0.93272438     2.39800
O2175       O  0.53495170  0.53338546  0.96629538    -0.93200
O2176       O  0.96492947  0.96660987  0.96824246    -0.92100
C2177       C  0.49575437  0.91250908  0.91893854     1.02000
C2178       C  0.50428454  0.58556336  0.91296533     1.00700
C2179       C  0.91184573  0.91720113  0.00428036     1.00100
C2180       C  0.58351356  0.91321040  0.00434933     1.02100
C2181       C  0.58855590  0.58449542  0.99947564     1.01000
C2182       C  0.91586492  0.59023554  0.99823962     0.99900
C2183       C  0.91304094  0.99824783  0.91407831     0.99900
C2184       C  0.58561410  0.99761629  0.91413726     1.02600
H2185       H  0.95322906  0.55002164  0.95027714     0.29900
O2186       O  0.96663955  0.53595380  0.96489478    -1.05300
H2187       H  0.54625867  0.95030552  0.95453445     0.32000
O2188       O  0.53271260  0.96524555  0.96806515    -1.07900
N2189       N  0.75159725  0.49077400  0.80133060    -0.36900
N2190       N  0.69894773  0.48791541  0.75099607    -0.57500
N2191       N  0.74951056  0.48797661  0.69825656    -0.36900
N2192       N  0.80208137  0.49317174  0.74878607    -0.57500
C2193       C  0.72420953  0.49810148  0.82017990     0.26700
C2194       C  0.77903097  0.50074929  0.81889524     0.26700
C2195       C  0.72132468  0.49428670  0.68017535     0.26600
C2196       C  0.77608115  0.49724358  0.67909789     0.26600
C2197       C  0.68032698  0.48180317  0.77877362     0.35300
C2198       C  0.67917330  0.48072231  0.72427630     0.35300
C2199       C  0.82236916  0.48869800  0.77566880     0.35300
C2200       C  0.82124327  0.48785034  0.72130991     0.35300
C2201       C  0.73440634  0.51292290  0.85006262    -0.22200
C2202       C  0.76901891  0.51438498  0.84934387    -0.22200
C2203       C  0.73013021  0.50730145  0.64902360    -0.22200
C2204       C  0.76467262  0.50913855  0.64833577    -0.22200
C2205       C  0.64865689  0.47033172  0.76962993    -0.23300
C2206       C  0.64789165  0.46977224  0.73507693    -0.23300
C2207       C  0.85464133  0.48052885  0.76526261    -0.23300
C2208       C  0.85389492  0.47986733  0.73073145    -0.23300
C2209       C  0.69050839  0.48969631  0.81197558    -0.18600
C2210       C  0.81283492  0.49548129  0.80913587    -0.18600
C2211       C  0.81039102  0.49373537  0.68802826    -0.18600
C2212       C  0.68797934  0.48705175  0.69042637    -0.18600
H2213       H  0.71858719  0.52133079  0.87052881     0.14300
H2214       H  0.78498465  0.52410295  0.86913849     0.14300
H2215       H  0.71342422  0.51460742  0.62878252     0.14300
H2216       H  0.77966784  0.51815657  0.62748752     0.14300
H2217       H  0.62799123  0.46381656  0.78609909     0.12600
H2218       H  0.62655878  0.46275582  0.71965807     0.12600
H2219       H  0.87659626  0.47637764  0.78085877     0.12600
H2220       H  0.87513490  0.47501904  0.71441924     0.12600
H2221       H  0.75181120  0.47612938  0.77967839     0.25800
H2222       H  0.75068265  0.47489947  0.72088239     0.25800
N2223       N  0.75028670  0.69959230  0.99891608    -0.36900
N2224       N  0.80104448  0.75249663  0.00194052    -0.57500
N2225       N  0.74822340  0.80256625  0.00058539    -0.36900
N2226       N  0.69747460  0.74988975  0.00059282    -0.57500
C2227       C  0.77813623  0.68106669  0.00530960     0.26700
C2228       C  0.72328295  0.67969044  0.00478674     0.26700
C2229       C  0.77514567  0.82151004  0.00929997     0.26600
C2230       C  0.72034779  0.82011726  0.00907373     0.26600
C2231       C  0.82096250  0.72575027  0.99535524     0.35300
C2232       C  0.81975208  0.78022076  0.99569775     0.35300
C2233       C  0.67841990  0.72235353  0.99472683     0.35300
C2234       C  0.67744094  0.77682830  0.99521597     0.35300
C2235       C  0.76873870  0.64883911  0.01491160    -0.22200
C2236       C  0.73414431  0.64791504  0.01441493    -0.22200
C2237       C  0.76428409  0.85136760  0.02367368    -0.22200
C2238       C  0.72965267  0.85050580  0.02350087    -0.22200
C2239       C  0.85251439  0.73648399  0.98512171    -0.23300
C2240       C  0.85170522  0.77101887  0.98517461    -0.23300
C2241       C  0.64598768  0.73181356  0.98598794    -0.23300
C2242       C  0.64547378  0.76634307  0.98588729    -0.23300
C2243       C  0.81177245  0.69180445  0.00058043    -0.18600
C2244       C  0.68922161  0.68885700  0.99976129    -0.18600
C2245       C  0.68687550  0.81053440  0.00155995    -0.18600
C2246       C  0.80904503  0.81357518  0.00195485    -0.18600
H2247       H  0.78510539  0.62797024  0.02118520     0.13500
H2248       H  0.71881315  0.62615599  0.02017608     0.14300
H2249       H  0.77970314  0.87191270  0.03272422     0.14300
H2250       H  0.71318294  0.87026911  0.03242017     0.14300
H2251       H  0.87393411  0.72103189  0.97848403     0.12600
H2252       H  0.87241122  0.78742575  0.97857648     0.12600
H2253       H  0.62479018  0.71559299  0.98058051     0.12600
H2254       H  0.62379483  0.78186636  0.98028280     0.12600
H2255       H  0.74986212  0.72316321  0.98765929     0.25800
H2256       H  0.74878394  0.78108146  0.98567568     0.25800
C2257       C  0.83473267  0.84100837  0.00248716    -0.06400
C2258       C  0.86136097  0.83707466  0.52284486    -0.17600
C2259       C  0.88621300  0.86188212  0.52535526     0.10700
C2260       C  0.88493647  0.89146332  0.00548517    -0.06400
C2261       C  0.85779128  0.89434697  0.98305879    -0.17600
C2262       C  0.83318521  0.86921958  0.98074916     0.10800
S2263       S  0.91867173  0.85538264  0.55633064    -0.32600
S2264       S  0.80115757  0.87444174  0.94894229    -0.32600
H2265       H  0.79544494  0.83998940  0.94338863     0.28800
H2266       H  0.92252143  0.88963542  0.56403717     0.28800
H2267       H  0.86262820  0.81528405  0.53922598     0.19400
H2268       H  0.85638211  0.91580206  0.96630039     0.19400
C2269       C  0.89023696  0.61706810  0.99771457    -0.06400
C2270       C  0.88853097  0.64016259  0.52166450    -0.17600
C2271       C  0.86280668  0.66425867  0.52272795     0.10700
C2272       C  0.83882292  0.66593187  0.00076266    -0.06400
C2273       C  0.84064828  0.64354292  0.97360878    -0.17600
C2274       C  0.86618915  0.61942939  0.97167510     0.10800
S2275       S  0.86197362  0.69265184  0.55806754    -0.32600
S2276       S  0.86760173  0.59332371  0.93471081    -0.32600
H2277       H  0.90291548  0.59134954  0.93332515     0.28800
H2278       H  0.82672863  0.69552407  0.55954673     0.28800
H2279       H  0.90702666  0.63941248  0.54170646     0.19400
H2280       H  0.82234344  0.64532496  0.95345729     0.19400
C2281       C  0.60946456  0.88658224  0.00452910    -0.06400
C2282       C  0.63598444  0.88923968  0.98137263    -0.17600
C2283       C  0.66073947  0.86435679  0.97905519     0.10700
C2284       C  0.66021849  0.83688407  0.00164329    -0.06400
C2285       C  0.63363346  0.83294397  0.51858669    -0.17600
C2286       C  0.60832437  0.85725318  0.52112005     0.10800
S2287       S  0.69164912  0.86866973  0.94612100    -0.32600
S2288       S  0.57565650  0.84972224  0.55162494    -0.32600
H2289       H  0.57068372  0.88373483  0.55950308     0.28800
H2290       H  0.69626175  0.83398693  0.94082503     0.28800
H2291       H  0.63673882  0.91030510  0.96403635     0.19400
H2292       H  0.63270090  0.81101404  0.53480141     0.19400
C2293       C  0.66335108  0.66192346  0.00042785    -0.06400
C2294       C  0.65166909  0.64917079  0.96968602    -0.17600
C2295       C  0.62774399  0.62338778  0.96865911     0.10700
C2296       C  0.61536366  0.60985587  0.99900155    -0.06400
C2297       C  0.62612625  0.62445070  0.52472950    -0.17600
C2298       C  0.64922973  0.65094449  0.52464552     0.10800
S2299       S  0.61378229  0.60912097  0.92797163    -0.32600
S2300       S  0.66058413  0.66911901  0.56458428    -0.32600
H2301       H  0.66431935  0.70220672  0.55265153     0.28800
H2302       H  0.60770851  0.57562251  0.93754204     0.28800
H2303       H  0.66128386  0.65945146  0.94634434     0.19400
H2304       H  0.61625667  0.61544187  0.54844244     0.19400
C2305       C  0.88689264  0.99699276  0.88777271    -0.06400
C2306       C  0.87929026  0.52740637  0.87024407    -0.17600
C2307       C  0.85517325  0.52754023  0.84460747     0.10700
C2308       C  0.83949063  0.49705704  0.83528901    -0.06400
C2309       C  0.84564095  0.96761871  0.85350123    -0.17600
C2310       C  0.87070679  0.96679267  0.87833314     0.10800
S2311       S  0.84474694  0.56750829  0.82573238    -0.32600
S2312       S  0.88069532  0.92644891  0.89672323    -0.32600
H2313       H  0.91328460  0.93427755  0.90790511     0.28800
H2314       H  0.83686056  0.55494368  0.79370467     0.28800
H2315       H  0.89063579  0.55091689  0.87779648     0.19400
H2316       H  0.83315528  0.94444105  0.84637314     0.19400
C2317       C  0.61187389  0.99723037  0.88776063    -0.06400
C2318       C  0.63830436  0.97390296  0.89063255    -0.17600
C2319       C  0.66296316  0.97103594  0.86564651     0.10700
C2320       C  0.66429943  0.49141226  0.83892863    -0.06400
C2321       C  0.63832907  0.51520964  0.83584414    -0.17600
C2322       C  0.61336865  0.51849762  0.86048855     0.10800
S2323       S  0.69462324  0.93889504  0.87102952    -0.32600
S2324       S  0.58154612  0.55019689  0.85350523    -0.32600
H2325       H  0.57568085  0.55747185  0.88751196     0.28800
H2326       H  0.69941143  0.93257710  0.83659389     0.28800
H2327       H  0.63918260  0.95703229  0.91205807     0.19400
H2328       H  0.63760271  0.53152103  0.81399202     0.19400
C2329       C  0.66066110  0.48878746  0.66473045    -0.06400
C2330       C  0.63762256  0.51556249  0.66630807    -0.17600
C2331       C  0.61333076  0.52035299  0.64119621     0.10700
C2332       C  0.61161678  0.49763682  0.61393401    -0.06400
C2333       C  0.63808291  0.97568761  0.60931079    -0.17600
C2334       C  0.66202484  0.97108282  0.63471508     0.10800
S2335       S  0.58657990  0.55690907  0.64442232    -0.32600
S2336       S  0.69195903  0.93731564  0.62950690    -0.32600
H2337       H  0.69748990  0.93148569  0.66393332     0.28800
H2338       H  0.58429491  0.56272279  0.60961291     0.28800
H2339       H  0.63927412  0.53345945  0.68678908     0.19400
H2340       H  0.63839602  0.95907169  0.58771087     0.19400
C2341       C  0.83616151  0.49741910  0.66119693    -0.06400
C2342       C  0.83628983  0.97802751  0.63662111    -0.17600
C2343       C  0.86108346  0.97834562  0.61175935     0.10700
C2344       C  0.88514721  0.50124010  0.61013716    -0.06400
C2345       C  0.88405036  0.52560859  0.63558170    -0.17600
C2346       C  0.85929975  0.52448578  0.66058020     0.10800
S2347       S  0.85868917  0.94632037  0.57975409    -0.32600
S2348       S  0.85836631  0.55842475  0.69066636    -0.32600
H2349       H  0.82342979  0.55761508  0.69617188     0.28800
H2350       H  0.89360561  0.94103706  0.57819022     0.28800
H2351       H  0.81686789  0.95888327  0.63585012     0.19400
H2352       H  0.90214197  0.54603313  0.63554166     0.19400
C2353       C  0.50503826  0.61133110  0.88614133    -0.06400
C2354       C  0.52756454  0.63841046  0.88902536    -0.17600
C2355       C  0.52959759  0.66321637  0.86405903     0.10700
C2356       C  0.50774701  0.66170525  0.83595745    -0.06400
C2357       C  0.98769572  0.63468854  0.83279769    -0.17600
C2358       C  0.98515666  0.60991344  0.85758186     0.10800
S2359       S  0.56052348  0.69603030  0.86963602    -0.32600
S2360       S  0.95331822  0.57818691  0.85191140    -0.32600
H2361       H  0.94450401  0.57656556  0.88609457     0.28800
H2362       H  0.56532650  0.70270955  0.83526157     0.28800
H2363       H  0.54412564  0.63995044  0.91062920     0.19400
H2364       H  0.97068183  0.63394348  0.81148817     0.19400
C2365       C  0.49531357  0.88544265  0.89370777    -0.06400
C2366       C  0.97178234  0.88446571  0.86836964    -0.17600
C2367       C  0.97068204  0.85964320  0.84340797     0.10700
C2368       C  0.49407246  0.83578222  0.84306679    -0.06400
C2369       C  0.51920782  0.83550365  0.86790005    -0.17600
C2370       C  0.52005978  0.85992415  0.89319507     0.10800
S2371       S  0.93593693  0.86083997  0.81418286    -0.32600
S2372       S  0.55419968  0.85800358  0.92311809    -0.32600
H2373       H  0.55878788  0.89301218  0.92558795     0.28800
H2374       H  0.93569809  0.82619151  0.80704971     0.28800
H2375       H  0.95268832  0.90393084  0.86856026     0.19400
H2376       H  0.53882245  0.81656160  0.86703232     0.19400
C2377       C  0.49838819  0.84372424  0.66832327    -0.06400
C2378       C  0.52923401  0.85767860  0.65823616    -0.17600
C2379       C  0.53064153  0.88407637  0.63487175     0.10700
C2380       C  0.50055508  0.89539194  0.61952721    -0.06400
C2381       C  0.97304996  0.87830731  0.62774565    -0.17600
C2382       C  0.97251444  0.85307233  0.65225316     0.10800
S2383       S  0.57149948  0.90261471  0.62726528    -0.32600
S2384       S  0.93213261  0.83520051  0.66290949    -0.32600
H2385       H  0.94024163  0.82612098  0.69608802     0.28800
H2386       H  0.56157651  0.92989897  0.60721298     0.28800
H2387       H  0.55238413  0.84835657  0.66928241     0.19400
H2388       H  0.94965663  0.88596753  0.61614121     0.19400
C2389       C  0.49786154  0.66737339  0.66143964    -0.06400
C2390       C  0.52183697  0.66882079  0.63558072    -0.17600
C2391       C  0.52319511  0.64416972  0.61044352     0.10700
C2392       C  0.49982608  0.61733354  0.61066122    -0.06400
C2393       C  0.97720214  0.61643593  0.63625640    -0.17600
C2394       C  0.97692812  0.64138791  0.66114450     0.10800
S2395       S  0.55652807  0.64753314  0.57997054    -0.32600
S2396       S  0.94310751  0.64040392  0.69136624    -0.32600
H2397       H  0.94241976  0.67522197  0.69756899     0.28800
H2398       H  0.56159967  0.61269316  0.57653603     0.28800
H2399       H  0.54026727  0.68892744  0.63551322     0.19400
H2400       H  0.95764494  0.59740885  0.63624245     0.19400
loop_ 
_geom_bond_atom_site_label_1 
_geom_bond_atom_site_label_2 
_geom_bond_distance 
_geom_bond_site_symmetry_2 
_ccdc_geom_bond_type 
N1            C6   1.352   1_455  A
N1            C5   1.353   1_455  A
N1           H33   1.039       .  S
N2            C9   1.351       .  A
N2           C10   1.351       .  A
N3            C8   1.353   1_455  A
N3            C7   1.352   1_455  A
N3           H34   1.040       .  S
N4           C11   1.351   1_655  A
N4           C12   1.351   1_655  A
C5           C13   1.387       .  A
C5           C21   1.416   1_655  A
C6           C22   1.415       .  A
C6           C14   1.387       .  A
C7           C15   1.388       .  A
C7           C24   1.415   1_655  A
C8           C23   1.413       .  A
C8           C16   1.386       .  A
C9           C21   1.413       .  A
C9           C17   1.386       .  A
C10          C24   1.413       .  A
C10          C18   1.386       .  A
C11          C19   1.386       .  A
C11          C22   1.413   1_455  A
C12          C20   1.386       .  A
C12          C23   1.413   1_455  A
C13          C14   1.375       .  A
C13          H25   1.082       .  S
C14          H26   1.082       .  S
C15          C16   1.378       .  A
C15          H27   1.082       .  S
C16          H28   1.082       .  S
C17          C18   1.375       .  A
C17          H29   1.082       .  S
C18          H30   1.082       .  S
C19          C20   1.372       .  A
C19          H31   1.082       .  S
C20          H32   1.082       .  S
C21         C289   1.491       .  S
C22         C277   1.486       .  S
C23         C268   1.490       .  S
C24         C256   1.491       .  S
O35          C46   1.291       .  A
O35        Eu371   2.462   1_554  S
O36          C47   1.294       .  A
O36        Eu370   2.479       .  S
O37          C48   1.291       .  A
O37       Eu1843   2.461       .  S
O38          C49   1.291       .  A
O38        Eu643   2.458       .  S
O39         C649   1.291       .  A
O39        Eu373   2.457       .  S
O40         C648   1.290       .  A
O40        Eu372   2.453   1_554  S
O41          C47   1.288       .  A
O41         Eu43   2.448       .  S
O42          C46   1.291       .  A
O42        Eu643   2.460       .  S
Eu43       O1837   2.465       .  S
Eu43        O638   2.464   1_655  S
Eu43        O642   2.457       .  S
Eu43         O44   2.355   1_655  S
Eu43        O653   2.356   1_655  S
Eu43       O1845   2.352       .  S
Eu43       O1251   2.358       .  S
O44        Eu373   2.352       .  S
O44        Eu370   2.351   1_455  S
O45       Eu1843   2.353       .  S
O45       Eu1571   2.358   1_554  S
O45        Eu972   2.358       .  S
C46         C292   1.480       .  S
C47         C280   1.472   1_655  S
C48         C244   1.477       .  S
C48         O640   1.292       .  A
C49         C232   1.476       .  S
C49         O639   1.291   1_545  A
H50          O51   0.966       .  S
O51       Eu1243   2.356       .  S
O51        Eu372   2.359   1_554  S
O51       Eu1570   2.352       .  S
H52          O53   0.964       .  S
O53        Eu643   2.353       .  S
O53        Eu371   2.350   1_554  S
O53        Eu973   2.358   1_545  S
O54          C77   1.291       .  A
O54         Eu70   2.458       .  S
O55          C78   1.290       .  A
O55         Eu71   2.454       .  S
O56          C79   1.291       .  A
O56         Eu72   2.461       .  S
O57          C80   1.291       .  A
O57         Eu73   2.455       .  S
O58          C81   1.290       .  A
O58        Eu673   2.454   1_545  S
O59          C82   1.292       .  A
O59        Eu672   2.464       .  S
O60          C83   1.291       .  A
O60       Eu1274   2.461       .  S
O61          C84   1.290       .  A
O61         Eu74   2.455       .  S
O62          C83   1.290       .  A
O62         Eu72   2.460       .  S
O63          C84   1.292       .  A
O63         Eu73   2.464       .  S
O64          C79   1.292       .  A
O64       Eu1270   2.465       .  S
O65          C82   1.291       .  A
O65       Eu1271   2.461       .  S
O66          C81   1.291       .  A
O66         Eu71   2.465       .  S
O67          C80   1.289       .  A
O67         Eu70   2.449   1_455  S
O68          C77   1.291       .  A
O68         Eu74   2.460   1_655  S
O69          C78   1.292       .  A
O69        Eu674   2.463   1_445  S
Eu70        O336   2.473       .  S
Eu70       O1264   2.464       .  S
Eu70         O88   2.357   1_655  S
Eu70        O344   2.350   1_655  S
Eu70       O1551   2.349       .  S
Eu70       O1276   2.353       .  S
Eu71        O335   2.461       .  S
Eu71       O1265   2.465   1_455  S
Eu71         O75   2.351       .  S
Eu71       O1545   2.354   1_455  S
Eu71        O353   2.354       .  S
Eu71       O1286   2.362   1_455  S
Eu72        O340   2.453       .  S
Eu72        O659   2.467       .  S
Eu72         O76   2.349       .  S
Eu72        O945   2.358       .  S
Eu72        O351   2.358       .  S
Eu72        O686   2.356       .  S
Eu73        O339   2.461       .  S
Eu73        O658   2.459       .  S
Eu73         O88   2.352       .  S
Eu73        O344   2.351       .  S
Eu73        O953   2.359       .  S
Eu73        O675   2.349       .  S
Eu74       O1260   2.464   1_455  S
Eu74        O669   2.457       .  S
Eu74         O88   2.352       .  S
Eu74        O675   2.353       .  S
Eu74       O1886   2.354   1_455  S
Eu74       O1276   2.349   1_455  S
O75        Eu673   2.347   1_545  S
O75        Eu674   2.349   1_445  S
O76       Eu1270   2.354       .  S
O76       Eu1274   2.353       .  S
C77         C265   1.473       .  S
C78         C253   1.479       .  S
C79         C160   1.481       .  S
C80         C181   1.473       .  S
C81         C196   1.469       .  S
C82         C169   1.475       .  S
C83         C205   1.470       .  S
C84         C217   1.479       .  S
H85          O86   0.966       .  S
O86       Eu1271   2.362       .  S
O86        Eu672   2.359       .  S
O86       Eu1874   2.357   1_545  S
H87          O88   0.966       .  S
N89          C94   1.353   1_565  A
N89          C93   1.352   1_565  A
N89         H121   1.041       .  S
N90          C97   1.351       .  A
N90          C98   1.351       .  A
N91          C96   1.353   1_565  A
N91          C95   1.353   1_565  A
N91         H122   1.040       .  S
N92          C99   1.351       .  A
N92         C100   1.350       .  A
C93         C101   1.387       .  A
C93         C109   1.415   1_545  A
C94         C110   1.413   1_545  A
C94         C102   1.386       .  A
C95         C103   1.386       .  A
C95         C112   1.414   1_545  A
C96         C111   1.416   1_545  A
C96         C104   1.388       .  A
C97         C109   1.413       .  A
C97         C105   1.386       .  A
C98         C112   1.411       .  A
C98         C106   1.385       .  A
C99         C107   1.386       .  A
C99         C110   1.411       .  A
C100        C108   1.387       .  A
C100        C111   1.413       .  A
C101        C102   1.378       .  A
C101        H113   1.082       .  S
C102        H114   1.082       .  S
C103        C104   1.376       .  A
C103        H115   1.082       .  S
C104        H116   1.082       .  S
C105        C106   1.374       .  A
C105        H117   1.082       .  S
C106        H118   1.082       .  S
C107        C108   1.374       .  A
C107        H119   1.082       .  S
C108        H120   1.082       .  S
C109        C220   1.492       .  S
C110        C208   1.485       .  S
C111        C241   1.489   1_565  S
C112        C229   1.490       .  S
N123        C128   1.354       .  A
N123        C127   1.353       .  A
N123        H155   1.039       .  S
N124        C131   1.351       .  A
N124        C132   1.351       .  A
N125        C130   1.351       .  A
N125        C129   1.352       .  A
N125        H156   1.040       .  S
N126        C133   1.349       .  A
N126        C134   1.349       .  A
C127        C135   1.387       .  A
C127        C143   1.416       .  A
C128        C144   1.416       .  A
C128        C136   1.387       .  A
C129        C137   1.386       .  A
C129        C146   1.412       .  A
C130        C145   1.413       .  A
C130        C138   1.388       .  A
C131        C143   1.413       .  A
C131        C139   1.386       .  A
C132        C146   1.414       .  A
C132        C140   1.386       .  A
C133        C141   1.387       .  A
C133        C144   1.410       .  A
C134        C142   1.387       .  A
C134        C145   1.411       .  A
C135        C136   1.376       .  A
C135        H147   1.082       .  S
C136        H148   1.082       .  S
C137        C138   1.377       .  A
C137        H149   1.082       .  S
C138        H150   1.083       .  S
C139        C140   1.373       .  A
C139        H151   1.082       .  S
C140        H152   1.082       .  S
C141        C142   1.373       .  A
C141        H153   1.082       .  S
C142        H154   1.082       .  S
C143        C172   1.490       .  S
C144        C193   1.484       .  S
C145        C184   1.483       .  S
C146        C157   1.489       .  S
C157        C162   1.414       .  A
C157        C458   1.402       .  A
C158        C159   1.399       .  A
C158        C457   1.402       .  A
C158        H167   1.084       .  S
C159        C460   1.414       .  A
C159        S163   1.799       .  S
C160        C161   1.404       .  A
C160        C459   1.415       .  A
C161        C162   1.401       .  A
C161        H168   1.083       .  S
C162        S164   1.805       .  S
S163        H166   1.405       .  S
S164        H165   1.405       .  S
C169        C174   1.412       .  A
C169        C470   1.403       .  A
C170        C171   1.400       .  A
C170        C469   1.403   1_554  A
C170        H179   1.084       .  S
C171        C472   1.413   1_554  A
C171        S175   1.803       .  S
C172        C173   1.403       .  A
C172        C471   1.415       .  A
C173        C174   1.399       .  A
C173        H180   1.084       .  S
C174        S176   1.801       .  S
S175        H178   1.407       .  S
S176        H177   1.406       .  S
C181        C182   1.403       .  A
C181        C486   1.415       .  A
C182        C183   1.396       .  A
C182        H191   1.084       .  S
C183        C184   1.412       .  A
C183        S187   1.805       .  S
C184        C485   1.402       .  A
C185        C186   1.397       .  A
C185        C484   1.403   1_554  A
C185        H192   1.084       .  S
C186        C481   1.415       .  A
C186        S188   1.803       .  S
S187        H190   1.406       .  S
S188        H189   1.401       .  S
C193        C194   1.403       .  A
C193        C498   1.413       .  A
C194        C195   1.400       .  A
C194        H203   1.084       .  S
C195        C196   1.411       .  A
C195        S199   1.801       .  S
C196        C497   1.400       .  A
C197        C198   1.397       .  A
C197        C496   1.400   1_554  A
C197        H204   1.082       .  S
C198        C493   1.412   1_554  A
C198        S200   1.804       .  S
S199        H202   1.405       .  S
S200        H201   1.404       .  S
C205        C210   1.412       .  A
C205        C806   1.400       .  A
C206        C207   1.397       .  A
C206        C805   1.400   1_545  A
C206        H215   1.079       .  S
C207        C208   1.411   1_545  A
C207        S211   1.804       .  S
C208        C809   1.404       .  A
C209        C210   1.401       .  A
C209        C808   1.404       .  A
C209        H216   1.084       .  S
C210        S212   1.806       .  S
S211        H214   1.403       .  S
S212        H213   1.403       .  S
C217        C218   1.405       .  A
C217        C822   1.416       .  A
C218        C219   1.401       .  A
C218        H227   1.084       .  S
C219        C820   1.415       .  A
C219        S223   1.804       .  S
C220        C221   1.404   1_565  A
C220        C819   1.414       .  A
C221        C222   1.400       .  A
C221        H228   1.084       .  S
C222        C817   1.417   1_545  A
C222        S224   1.806       .  S
S223        H226   1.406       .  S
S224        H225   1.402       .  S
C229        C230   1.405   1_565  A
C229        C834   1.413       .  A
C230        C231   1.400       .  A
C230        H239   1.084       .  S
C231        C232   1.414       .  A
C231        S235   1.805       .  S
C232        C833   1.403   1_545  A
C233        C234   1.401       .  A
C233        C832   1.405       .  A
C233        H240   1.084       .  S
C234        C829   1.414       .  A
C234        S236   1.804       .  S
S235        H238   1.407       .  S
S236        H237   1.405       .  S
C241        C246   1.415       .  A
C241        C842   1.402   1_545  A
C242        C243   1.402       .  A
C242        C841   1.403       .  A
C242        H251   1.083       .  S
C243        C844   1.412       .  A
C243        S247   1.808       .  S
C244        C245   1.404       .  A
C244        C843   1.415   1_545  A
C245        C246   1.401       .  A
C245        H252   1.084       .  S
C246        S248   1.805       .  S
S247        H250   1.406       .  S
S248        H249   1.406       .  S
C253        C254   1.405       .  A
C253       C1458   1.414   1_455  A
C254        C255   1.400       .  A
C254        H263   1.084       .  S
C255        C256   1.414       .  A
C255        S259   1.805       .  S
C256       C1457   1.403   1_455  A
C257        C258   1.397       .  A
C257       C1456   1.403       .  A
C257        H264   1.084       .  S
C258       C1453   1.414       .  A
C258        S260   1.800       .  S
S259        H262   1.406       .  S
S260        H261   1.406       .  S
C265        C270   1.413   1_655  A
C265       C1466   1.402       .  A
C266        C267   1.401       .  A
C266       C1465   1.403       .  A
C266        H275   1.083       .  S
C267       C1468   1.414       .  A
C267        S271   1.804       .  S
C268        C269   1.404   1_655  A
C268       C1467   1.414       .  A
C269        C270   1.400       .  A
C269        H276   1.084       .  S
C270        S272   1.805       .  S
S271        H274   1.406       .  S
S272        H273   1.406       .  S
C277        C278   1.403   1_655  A
C277       C1482   1.412       .  A
C278        C279   1.400       .  A
C278        H287   1.084       .  S
C279        C280   1.415       .  A
C279        S283   1.808       .  S
C280       C1481   1.401   1_455  A
C281        C282   1.397       .  A
C281       C1480   1.400       .  A
C281        H288   1.080       .  S
C282       C1477   1.412       .  A
C282        S284   1.803       .  S
S283        H286   1.401       .  S
S284        H285   1.405       .  S
C289        C290   1.404       .  A
C289       C1494   1.413   1_455  A
C290        C291   1.401       .  A
C290        H299   1.084       .  S
C291        C292   1.416       .  A
C291        S295   1.801       .  S
C292       C1493   1.403   1_455  A
C293        C294   1.397       .  A
C293       C1492   1.403       .  A
C293        H300   1.084       .  S
C294       C1489   1.412       .  A
C294        S296   1.803       .  S
S295        H298   1.403       .  S
S296        H297   1.406       .  S
N301        C306   1.352   1_455  A
N301        C305   1.353   1_455  A
N301        H333   1.038       .  S
N302        C309   1.350       .  A
N302        C310   1.350       .  A
N303        C308   1.353   1_455  A
N303        C307   1.353   1_455  A
N303        H334   1.040       .  S
N304        C311   1.352   1_655  A
N304        C312   1.352   1_655  A
C305        C313   1.387       .  A
C305        C321   1.415   1_655  A
C306        C322   1.416       .  A
C306        C314   1.388       .  A
C307        C315   1.387       .  A
C307        C324   1.415   1_655  A
C308        C323   1.413       .  A
C308        C316   1.386       .  A
C309        C321   1.412       .  A
C309        C317   1.386       .  A
C310        C324   1.412       .  A
C310        C318   1.387       .  A
C311        C319   1.387       .  A
C311        C322   1.415   1_455  A
C312        C320   1.385       .  A
C312        C323   1.414   1_455  A
C313        C314   1.374       .  A
C313        H325   1.082       .  S
C314        H326   1.081       .  S
C315        C316   1.376       .  A
C315        H327   1.082       .  S
C316        H328   1.082       .  S
C317        C318   1.374       .  A
C317        H329   1.082       .  S
C318        H330   1.082       .  S
C319        C320   1.372       .  A
C319        H331   1.082       .  S
C320        H332   1.082       .  S
C321        C589   1.489       .  S
C322        C577   1.486       .  S
C323        C568   1.493       .  S
C324        C556   1.490       .  S
O335        C346   1.291       .  A
O336        C347   1.293   1_655  A
O337        C348   1.291       .  A
O337      Eu2143   2.461       .  S
O338        C349   1.291       .  A
O338       Eu943   2.460   1_455  S
O339        C949   1.291       .  A
O340        C948   1.290       .  A
O341        C347   1.288       .  A
O341       Eu343   2.450   1_455  S
O342        C346   1.290       .  A
O342       Eu943   2.451   1_455  S
Eu343      O2137   2.464       .  S
Eu343       O938   2.466   1_655  S
Eu343       O942   2.456       .  S
Eu343       O953   2.355   1_655  S
Eu343      O2145   2.353       .  S
Eu343       O344   2.352   1_655  S
Eu343      O1551   2.360       .  S
O345      Eu2143   2.352       .  S
O345      Eu1271   2.356       .  S
O345       Eu672   2.357       .  S
C346        C592   1.475       .  S
C347        C580   1.470       .  S
C348        C544   1.477       .  S
C348        O940   1.292       .  A
C349        C532   1.480       .  S
C349        O939   1.292   1_545  A
H350        O351   0.965       .  S
O351      Eu1543   2.357       .  S
O351      Eu1270   2.350       .  S
H352        O353   0.964       .  S
O353       Eu943   2.355   1_455  S
O353       Eu673   2.360   1_545  S
O354        C377   1.292       .  A
O354       Eu370   2.462   1_556  S
O355        C378   1.290       .  A
O355       Eu371   2.449       .  S
O356        C379   1.291       .  A
O356       Eu372   2.460   1_554  S
O357        C380   1.291       .  A
O357       Eu373   2.454       .  S
O358        C381   1.289       .  A
O358       Eu973   2.452   1_546  S
O359        C382   1.292       .  A
O359       Eu972   2.462   1_556  S
O360        C383   1.291       .  A
O360      Eu1574   2.462       .  S
O361        C384   1.292       .  A
O361       Eu374   2.464       .  S
O362        C383   1.290       .  A
O362       Eu372   2.460       .  S
O363        C384   1.291       .  A
O363       Eu373   2.460   1_556  S
O364        C379   1.292       .  A
O364      Eu1570   2.465       .  S
O365        C382   1.291       .  A
O365      Eu1571   2.459       .  S
O366        C381   1.291       .  A
O366       Eu371   2.464       .  S
O367        C380   1.290       .  A
O367       Eu370   2.455   1_455  S
O368        C377   1.292       .  A
O368       Eu374   2.467   1_655  S
O369        C378   1.292       .  A
O369       Eu974   2.465   1_445  S
Eu370      O1564   2.467       .  S
Eu370      O1251   2.351       .  S
Eu370       O388   2.359   1_654  S
Eu370      O1576   2.354   1_554  S
Eu371      O1565   2.458   1_455  S
Eu371      O1245   2.355   1_456  S
Eu371       O375   2.351       .  S
Eu371      O1586   2.365   1_455  S
Eu372       O959   2.462       .  S
Eu372       O645   2.355   1_556  S
Eu372       O986   2.356       .  S
Eu372       O376   2.349       .  S
Eu373       O958   2.456   1_554  S
Eu373       O653   2.362       .  S
Eu373       O975   2.346   1_554  S
Eu373       O388   2.352   1_554  S
Eu374      O1560   2.459   1_455  S
Eu374       O969   2.461       .  S
Eu374       O975   2.348       .  S
Eu374      O2186   2.358   1_455  S
Eu374       O388   2.351       .  S
Eu374      O1576   2.351   1_455  S
O375       Eu973   2.348   1_546  S
O375       Eu974   2.352   1_445  S
O376      Eu1570   2.353   1_556  S
O376      Eu1574   2.354       .  S
C377        C565   1.476       .  S
C378        C553   1.478       .  S
C379        C460   1.480       .  S
C380        C481   1.476       .  S
C381        C496   1.468       .  S
C382        C469   1.472       .  S
C383        C505   1.470       .  S
C384        C517   1.481       .  S
H385        O386   0.966       .  S
O386      Eu1571   2.358       .  S
O386       Eu972   2.361   1_556  S
O386      Eu2174   2.352   1_545  S
H387        O388   0.966       .  S
N389        C394   1.352   1_565  A
N389        C393   1.352       .  A
N389        H421   1.040       .  S
N390        C397   1.352       .  A
N390        C398   1.352       .  A
N391        C396   1.353   1_565  A
N391        C395   1.354   1_565  A
N391        H422   1.040       .  S
N392        C399   1.351       .  A
N392        C400   1.351       .  A
C393        C401   1.388   1_565  A
C393        C409   1.415       .  A
C394        C410   1.412   1_545  A
C394        C402   1.386       .  A
C395        C403   1.387       .  A
C395        C412   1.417   1_545  A
C396        C411   1.416       .  A
C396        C404   1.387       .  A
C397        C409   1.415       .  A
C397        C405   1.386       .  A
C398        C412   1.414       .  A
C398        C406   1.386       .  A
C399        C407   1.385       .  A
C399        C410   1.409       .  A
C400        C408   1.386       .  A
C400        C411   1.412   1_565  A
C401        C402   1.377       .  A
C401        H413   1.082       .  S
C402        H414   1.082       .  S
C403        C404   1.377       .  A
C403        H415   1.082       .  S
C404        H416   1.082       .  S
C405        C406   1.374       .  A
C405        H417   1.082       .  S
C406        H418   1.082       .  S
C407        C408   1.373       .  A
C407        H419   1.082       .  S
C408        H420   1.082       .  S
C409        C520   1.491       .  S
C410        C508   1.483       .  S
C411        C541   1.492       .  S
C412        C529   1.493       .  S
N423        C428   1.353       .  A
N423        C427   1.352       .  A
N423        H455   1.039       .  S
N424        C431   1.350       .  A
N424        C432   1.351       .  A
N425        C430   1.351   1_556  A
N425        C429   1.352   1_556  A
N425        H456   1.041       .  S
N426        C433   1.350       .  A
N426        C434   1.350       .  A
C427        C435   1.387   1_556  A
C427        C443   1.414       .  A
C428        C444   1.414       .  A
C428        C436   1.387   1_556  A
C429        C437   1.386       .  A
C429        C446   1.413   1_554  A
C430        C445   1.415   1_554  A
C430        C438   1.388       .  A
C431        C443   1.411       .  A
C431        C439   1.386       .  A
C432        C446   1.412       .  A
C432        C440   1.386       .  A
C433        C441   1.386       .  A
C433        C444   1.410       .  A
C434        C442   1.387       .  A
C434        C445   1.412       .  A
C435        C436   1.376       .  A
C435        H447   1.082       .  S
C436        H448   1.082       .  S
C437        C438   1.377       .  A
C437        H449   1.082       .  S
C438        H450   1.082       .  S
C439        C440   1.374       .  A
C439        H451   1.082       .  S
C440        H452   1.082       .  S
C441        C442   1.373       .  A
C441        H453   1.082       .  S
C442        H454   1.082       .  S
C443        C472   1.487       .  S
C444        C493   1.483       .  S
C445        C484   1.488       .  S
C446        C457   1.489   1_556  S
C457        C462   1.413   1_554  A
C458        C459   1.398       .  A
C458        H467   1.084       .  S
C459        S463   1.800       .  S
C460        C461   1.403   1_554  A
C461        C462   1.400       .  A
C461        H468   1.082       .  S
C462        S464   1.804       .  S
S463        H466   1.405       .  S
S464        H465   1.406       .  S
C469        C474   1.412       .  A
C470        C471   1.401       .  A
C470        H479   1.084       .  S
C471        S475   1.804       .  S
C472        C473   1.402       .  A
C473        C474   1.398       .  A
C473        H480   1.084       .  S
C474        S476   1.801       .  S
S475        H478   1.406       .  S
S476        H477   1.406       .  S
C481        C482   1.405   1_554  A
C482        C483   1.398       .  A
C482        H491   1.084       .  S
C483        C484   1.413       .  A
C483        S487   1.805       .  S
C485        C486   1.397       .  A
C485        H492   1.084       .  S
C486        S488   1.803       .  S
S487        H490   1.406       .  S
S488        H489   1.401       .  S
C493        C494   1.402       .  A
C494        C495   1.399       .  A
C494        H503   1.084       .  S
C495        C496   1.411       .  A
C495        S499   1.801       .  S
C497        C498   1.397       .  A
C497        H504   1.082       .  S
C498        S500   1.804       .  S
S499        H502   1.405       .  S
S500        H501   1.405       .  S
C505       C1106   1.400       .  A
C505        C510   1.413       .  A
C506       C1105   1.400   1_545  A
C506        C507   1.397       .  A
C506        H515   1.078       .  S
C507        C508   1.412   1_545  A
C507        S511   1.807       .  S
C508       C1109   1.403       .  A
C509       C1108   1.403       .  A
C509        C510   1.401       .  A
C509        H516   1.084       .  S
C510        S512   1.807       .  S
S511        H514   1.402       .  S
S512        H513   1.403       .  S
C517        C518   1.405       .  A
C517       C1122   1.416       .  A
C518        C519   1.401       .  A
C518        H527   1.084       .  S
C519       C1120   1.415       .  A
C519        S523   1.805       .  S
C520       C1119   1.414       .  A
C520        C521   1.404   1_565  A
C521        C522   1.399       .  A
C521        H528   1.084       .  S
C522       C1117   1.416   1_545  A
C522        S524   1.807       .  S
S523        H526   1.406       .  S
S524        H525   1.403       .  S
C529        C530   1.405   1_565  A
C529       C1134   1.414       .  A
C530        C531   1.401       .  A
C530        H539   1.084       .  S
C531        C532   1.415       .  A
C531        S535   1.805       .  S
C532       C1133   1.405   1_545  A
C533       C1132   1.405       .  A
C533        C534   1.401       .  A
C533        H540   1.084       .  S
C534       C1129   1.414       .  A
C534        S536   1.804       .  S
S535        H538   1.406       .  S
S536        H537   1.406       .  S
C541       C1142   1.403   1_545  A
C541        C546   1.417       .  A
C542       C1141   1.401       .  A
C542        C543   1.397       .  A
C542        H551   1.084       .  S
C543       C1144   1.413       .  A
C543        S547   1.797       .  S
C544       C1143   1.414   1_545  A
C544        C545   1.404       .  A
C545        C546   1.402       .  A
C545        H552   1.084       .  S
C546        S548   1.805       .  S
S547        H550   1.407       .  S
S548        H549   1.405       .  S
C553        C554   1.404       .  A
C553       C1758   1.413   1_455  A
C554        C555   1.399       .  A
C554        H563   1.084       .  S
C555        C556   1.415       .  A
C555        S559   1.805       .  S
C556       C1757   1.403   1_455  A
C557       C1756   1.401       .  A
C557        C558   1.396       .  A
C557        H564   1.084       .  S
C558       C1753   1.415       .  A
C558        S560   1.798       .  S
S559        H562   1.405       .  S
S560        H561   1.404       .  S
C565       C1766   1.403       .  A
C565        C570   1.413   1_655  A
C566       C1765   1.403       .  A
C566        C567   1.400       .  A
C566        H575   1.082       .  S
C567       C1768   1.413       .  A
C567        S571   1.804       .  S
C568       C1767   1.414       .  A
C568        C569   1.404   1_655  A
C569        C570   1.401       .  A
C569        H576   1.084       .  S
C570        S572   1.805       .  S
S571        H574   1.406       .  S
S572        H573   1.406       .  S
C577        C578   1.403   1_655  A
C577       C1782   1.411       .  A
C578        C579   1.400       .  A
C578        H587   1.084       .  S
C579        C580   1.415       .  A
C579        S583   1.808       .  S
C580       C1781   1.400   1_455  A
C581       C1780   1.400       .  A
C581        C582   1.396       .  A
C581        H588   1.081       .  S
C582       C1777   1.412       .  A
C582        S584   1.805       .  S
S583        H586   1.400       .  S
S584        H585   1.405       .  S
C589        C590   1.403       .  A
C589       C1794   1.413   1_455  A
C590        C591   1.399       .  A
C590        H599   1.084       .  S
C591        C592   1.414       .  A
C591        S595   1.801       .  S
C592       C1793   1.404   1_455  A
C593       C1792   1.403       .  A
C593        C594   1.398       .  A
C593        H600   1.084       .  S
C594       C1789   1.414       .  A
C594        S596   1.804       .  S
S595        H598   1.405       .  S
S596        H597   1.406       .  S
N601        C606   1.354   1_455  A
N601        C605   1.355   1_455  A
N601        H633   1.038       .  S
N602        C609   1.351       .  A
N602        C610   1.352       .  A
N603        C608   1.353   1_455  A
N603        C607   1.352   1_455  A
N603        H634   1.040       .  S
N604        C611   1.351   1_655  A
N604        C612   1.352   1_655  A
C605        C613   1.386       .  A
C605        C621   1.418       .  A
C606        C622   1.419       .  A
C606        C614   1.388       .  A
C607        C615   1.387       .  A
C607        C624   1.415   1_655  A
C608        C623   1.414       .  A
C608        C616   1.387       .  A
C609        C621   1.414   1_455  A
C609        C617   1.386       .  A
C610        C624   1.414       .  A
C610        C618   1.387       .  A
C611        C619   1.388       .  A
C611        C622   1.415   1_455  A
C612        C620   1.385       .  A
C612        C623   1.414   1_455  A
C613        C614   1.377       .  A
C613        H625   1.082       .  S
C614        H626   1.082       .  S
C615        C616   1.375       .  A
C615        H627   1.082       .  S
C616        H628   1.082       .  S
C617        C618   1.373       .  A
C617        H629   1.082       .  S
C618        H630   1.082       .  S
C619        C620   1.372       .  A
C619        H631   1.082       .  S
C620        H632   1.082       .  S
C621        C889   1.493       .  S
C622        C877   1.489       .  S
C623        C868   1.492       .  S
C624        C856   1.491       .  S
O635        C646   1.291       .  A
O635       Eu971   2.462   1_554  S
O636        C647   1.294   1_655  A
O636       Eu970   2.478       .  S
O637        C648   1.292       .  A
O637      Eu1243   2.464       .  S
O638        C649   1.292       .  A
O639       Eu973   2.459       .  S
O640       Eu972   2.462       .  S
O641        C647   1.289       .  A
O641       Eu643   2.454   1_565  S
O642        C646   1.291   1_655  A
Eu643      O1237   2.465   1_455  S
Eu643      O1245   2.352   1_455  S
Eu643       O644   2.356   1_545  S
Eu643      O1851   2.356   1_445  S
O644       Eu973   2.351       .  S
O644       Eu970   2.348   1_455  S
O645      Eu1243   2.350       .  S
O645      Eu2171   2.349   1_554  S
C646        C892   1.478       .  S
C647        C880   1.474       .  S
C648        C844   1.474       .  S
C649        C832   1.478       .  S
H650        O651   0.966       .  S
O651      Eu1843   2.354   1_565  S
O651       Eu972   2.356   1_565  S
O651      Eu2170   2.349       .  S
H652        O653   0.964       .  S
O653       Eu971   2.357   1_554  S
O654        C677   1.291       .  A
O654       Eu670   2.459       .  S
O655        C678   1.291       .  A
O655       Eu671   2.459       .  S
O656        C679   1.292       .  A
O656       Eu672   2.463   1_565  S
O657        C680   1.291       .  A
O657       Eu673   2.454       .  S
O658        C681   1.290       .  A
O659        C682   1.292       .  A
O660        C683   1.290       .  A
O660      Eu1874   2.458       .  S
O661        C684   1.291       .  A
O661       Eu674   2.457   1_455  S
O662        C683   1.291       .  A
O662       Eu672   2.461   1_565  S
O663        C684   1.293       .  A
O663       Eu673   2.471       .  S
O664        C679   1.291       .  A
O664      Eu1870   2.455       .  S
O665        C682   1.291       .  A
O665      Eu1871   2.459       .  S
O666        C681   1.291       .  A
O666       Eu671   2.462       .  S
O667        C680   1.291       .  A
O667       Eu670   2.459   1_455  S
O668        C677   1.291       .  A
O668       Eu674   2.459       .  S
O669        C678   1.291       .  A
Eu670       O936   2.473   1_655  S
Eu670      O1864   2.462       .  S
Eu670       O944   2.348   1_655  S
Eu670      O2151   2.352       .  S
Eu670       O688   2.360   1_655  S
Eu670      O1876   2.354       .  S
Eu671       O935   2.468       .  S
Eu671      O1865   2.462   1_455  S
Eu671      O2145   2.352   1_455  S
Eu671       O953   2.356       .  S
Eu671       O675   2.353       .  S
Eu671      O1886   2.364   1_455  S
Eu672       O940   2.461       .  S
Eu672       O951   2.355   1_545  S
Eu672       O676   2.350   1_545  S
Eu673       O939   2.465       .  S
Eu673       O944   2.351       .  S
Eu673       O688   2.353       .  S
Eu674      O1860   2.459       .  S
Eu674      O1286   2.354   1_565  S
Eu674       O688   2.357   1_655  S
Eu674      O1876   2.349       .  S
O676      Eu1870   2.354       .  S
O676      Eu1874   2.352       .  S
C677        C865   1.474       .  S
C678        C853   1.477       .  S
C679        C760   1.480       .  S
C680        C781   1.478       .  S
C681        C796   1.470       .  S
C682        C769   1.475       .  S
C683        C805   1.469       .  S
C684        C817   1.480       .  S
H685        O686   0.966       .  S
O686      Eu1871   2.364       .  S
O686      Eu1274   2.358       .  S
H687        O688   0.966       .  S
N689        C694   1.353       .  A
N689        C693   1.354       .  A
N689        H721   1.040       .  S
N690        C697   1.352       .  A
N690        C698   1.352       .  A
N691        C696   1.354       .  A
N691        C695   1.354       .  A
N691        H722   1.039       .  S
N692        C699   1.352       .  A
N692        C700   1.352       .  A
C693        C701   1.388       .  A
C693        C709   1.417       .  A
C694        C710   1.414       .  A
C694        C702   1.386       .  A
C695        C703   1.387       .  A
C695        C712   1.416       .  A
C696        C711   1.417       .  A
C696        C704   1.388       .  A
C697        C709   1.415       .  A
C697        C705   1.386       .  A
C698        C712   1.413       .  A
C698        C706   1.386       .  A
C699        C707   1.386       .  A
C699        C710   1.413       .  A
C700        C708   1.387       .  A
C700        C711   1.415       .  A
C701        C702   1.377       .  A
C701        H713   1.082       .  S
C702        H714   1.082       .  S
C703        C704   1.376       .  A
C703        H715   1.082       .  S
C704        H716   1.082       .  S
C705        C706   1.374       .  A
C705        H717   1.082       .  S
C706        H718   1.082       .  S
C707        C708   1.373       .  A
C707        H719   1.082       .  S
C708        H720   1.082       .  S
C709        C820   1.494       .  S
C710        C808   1.485       .  S
C711        C841   1.492       .  S
C712        C829   1.491       .  S
N723        C728   1.354       .  A
N723        C727   1.353       .  A
N723        H755   1.038       .  S
N724        C731   1.350       .  A
N724        C732   1.351       .  A
N725        C730   1.352       .  A
N725        C729   1.353       .  A
N725        H756   1.041       .  S
N726        C733   1.351       .  A
N726        C734   1.350       .  A
C727        C735   1.387       .  A
C727        C743   1.416       .  A
C728        C744   1.417       .  A
C728        C736   1.388       .  A
C729        C737   1.386       .  A
C729        C746   1.413       .  A
C730        C745   1.414       .  A
C730        C738   1.387       .  A
C731        C743   1.411       .  A
C731        C739   1.386       .  A
C732        C746   1.412       .  A
C732        C740   1.386       .  A
C733        C741   1.386       .  A
C733        C744   1.413       .  A
C734        C742   1.387       .  A
C734        C745   1.413       .  A
C735        C736   1.376       .  A
C735        H747   1.082       .  S
C736        H748   1.082       .  S
C737        C738   1.377       .  A
C737        H749   1.082       .  S
C738        H750   1.082       .  S
C739        C740   1.373       .  A
C739        H751   1.082       .  S
C740        H752   1.082       .  S
C741        C742   1.373       .  A
C741        H753   1.082       .  S
C742        H754   1.082       .  S
C743        C772   1.488       .  S
C744        C793   1.486       .  S
C745        C784   1.490       .  S
C746        C757   1.492       .  S
C757       C1058   1.404       .  A
C757        C762   1.415       .  A
C758       C1057   1.403       .  A
C758        C759   1.399       .  A
C758        H767   1.084       .  S
C759       C1060   1.417       .  A
C759        S763   1.801       .  S
C760       C1059   1.416       .  A
C760        C761   1.403       .  A
C761        C762   1.399       .  A
C761        H768   1.083       .  S
C762        S764   1.805       .  S
S763        H766   1.403       .  S
S764        H765   1.406       .  S
C769       C1070   1.403       .  A
C769        C774   1.412       .  A
C770       C1069   1.403   1_554  A
C770        C771   1.401       .  A
C770        H779   1.084       .  S
C771       C1072   1.414   1_554  A
C771        S775   1.805       .  S
C772       C1071   1.415       .  A
C772        C773   1.402       .  A
C773        C774   1.398       .  A
C773        H780   1.084       .  S
C774        S776   1.800       .  S
S775        H778   1.406       .  S
S776        H777   1.407       .  S
C781        C782   1.404       .  A
C781       C1086   1.415       .  A
C782        C783   1.398       .  A
C782        H791   1.084       .  S
C783        C784   1.414       .  A
C783        S787   1.805       .  S
C784       C1085   1.403       .  A
C785       C1084   1.402   1_554  A
C785        C786   1.397       .  A
C785        H792   1.084       .  S
C786       C1081   1.415       .  A
C786        S788   1.802       .  S
S787        H790   1.406       .  S
S788        H789   1.401       .  S
C793        C794   1.403       .  A
C793       C1098   1.414       .  A
C794        C795   1.400       .  A
C794        H803   1.084       .  S
C795        C796   1.411       .  A
C795        S799   1.802       .  S
C796       C1097   1.400       .  A
C797       C1096   1.399   1_554  A
C797        C798   1.398       .  A
C797        H804   1.083       .  S
C798       C1093   1.414   1_554  A
C798        S800   1.804       .  S
S799        H802   1.405       .  S
S800        H801   1.404       .  S
C805        C810   1.413       .  A
C806        C807   1.398       .  A
C806        H815   1.079       .  S
C807        C808   1.413       .  A
C807        S811   1.807       .  S
C809        C810   1.402       .  A
C809        H816   1.084       .  S
C810        S812   1.808       .  S
S811        H814   1.401       .  S
S812        H813   1.403       .  S
C817        C818   1.404       .  A
C818        C819   1.400       .  A
C818        H827   1.084       .  S
C819        S823   1.805       .  S
C820        C821   1.404       .  A
C821        C822   1.399       .  A
C821        H828   1.084       .  S
C822        S824   1.806       .  S
S823        H826   1.406       .  S
S824        H825   1.403       .  S
C829        C830   1.404       .  A
C830        C831   1.400       .  A
C830        H839   1.084       .  S
C831        C832   1.413       .  A
C831        S835   1.803       .  S
C833        C834   1.399       .  A
C833        H840   1.084       .  S
C834        S836   1.804       .  S
S835        H838   1.406       .  S
S836        H837   1.406       .  S
C841        C846   1.415       .  A
C842        C843   1.397       .  A
C842        H851   1.084       .  S
C843        S847   1.803       .  S
C844        C845   1.402       .  A
C845        C846   1.400       .  A
C845        H852   1.084       .  S
C846        S848   1.804       .  S
S847        H850   1.404       .  S
S848        H849   1.406       .  S
C853        C854   1.403       .  A
C853       C2058   1.414   1_455  A
C854        C855   1.400       .  A
C854        H863   1.084       .  S
C855        C856   1.415       .  A
C855        S859   1.805       .  S
C856       C2057   1.402   1_455  A
C857       C2056   1.403       .  A
C857        C858   1.397       .  A
C857        H864   1.084       .  S
C858       C2053   1.413       .  A
C858        S860   1.800       .  S
S859        H862   1.406       .  S
S860        H861   1.406       .  S
C865       C2066   1.403       .  A
C865        C870   1.413   1_655  A
C866       C2065   1.404       .  A
C866        C867   1.402       .  A
C866        H875   1.084       .  S
C867       C2068   1.416       .  A
C867        S871   1.805       .  S
C868       C2067   1.415       .  A
C868        C869   1.404   1_655  A
C869        C870   1.400       .  A
C869        H876   1.084       .  S
C870        S872   1.805       .  S
S871        H874   1.405       .  S
S872        H873   1.406       .  S
C877        C878   1.404   1_655  A
C877       C2082   1.412       .  A
C878        C879   1.401       .  A
C878        H887   1.084       .  S
C879        C880   1.416       .  A
C879        S883   1.808       .  S
C880       C2081   1.402   1_455  A
C881       C2080   1.401       .  A
C881        C882   1.399       .  A
C881        H888   1.080       .  S
C882       C2077   1.412       .  A
C882        S884   1.804       .  S
S883        H886   1.401       .  S
S884        H885   1.405       .  S
C889        C890   1.403   1_655  A
C889       C2094   1.415       .  A
C890        C891   1.400       .  A
C890        H899   1.084       .  S
C891        C892   1.414       .  A
C891        S895   1.802       .  S
C892       C2093   1.404   1_455  A
C893       C2092   1.404       .  A
C893        C894   1.402       .  A
C893        H900   1.084       .  S
C894       C2089   1.416       .  A
C894        S896   1.804       .  S
S895        H898   1.405       .  S
S896        H897   1.406       .  S
N901        C906   1.354   1_455  A
N901        C905   1.355   1_455  A
N901        H933   1.038       .  S
N902        C909   1.350       .  A
N902        C910   1.350       .  A
N903        C908   1.354   1_455  A
N903        C907   1.352       .  A
N903        H934   1.040       .  S
N904        C911   1.352       .  A
N904        C912   1.353       .  A
C905        C913   1.386       .  A
C905        C921   1.418   1_655  A
C906        C922   1.420   1_655  A
C906        C914   1.388       .  A
C907        C915   1.387   1_455  A
C907        C924   1.414       .  A
C908        C923   1.413       .  A
C908        C916   1.386       .  A
C909        C921   1.412       .  A
C909        C917   1.386       .  A
C910        C924   1.413       .  A
C910        C918   1.387       .  A
C911        C919   1.388       .  A
C911        C922   1.417       .  A
C912        C920   1.385       .  A
C912        C923   1.414   1_455  A
C913        C914   1.375       .  A
C913        H925   1.082       .  S
C914        H926   1.081       .  S
C915        C916   1.375       .  A
C915        H927   1.082       .  S
C916        H928   1.082       .  S
C917        C918   1.374       .  A
C917        H929   1.082       .  S
C918        H930   1.082       .  S
C919        C920   1.372       .  A
C919        H931   1.082       .  S
C920        H932   1.082       .  S
C921       C1189   1.492       .  S
C922       C1177   1.490       .  S
C923       C1168   1.494       .  S
C924       C1156   1.489       .  S
O935        C946   1.293       .  A
O936        C947   1.293       .  A
O937        C948   1.293       .  A
O937      Eu1543   2.473       .  S
O938        C949   1.292       .  A
O941        C947   1.289       .  A
O941       Eu943   2.453   1_465  S
O942        C946   1.290   1_655  A
Eu943      O1537   2.462       .  S
Eu943      O1545   2.354       .  S
Eu943       O944   2.353   1_645  S
Eu943      O2151   2.357   1_545  S
O945      Eu1543   2.351       .  S
O945      Eu1871   2.352       .  S
C946       C1192   1.479       .  S
C947       C1180   1.472       .  S
C948       C1144   1.476       .  S
C949       C1132   1.479       .  S
H950        O951   0.966       .  S
O951      Eu2143   2.351   1_565  S
O951      Eu1870   2.351       .  S
H952        O953   0.964       .  S
O954        C977   1.292       .  A
O954       Eu970   2.462   1_556  S
O955        C978   1.290       .  A
O955       Eu971   2.454       .  S
O956        C979   1.293       .  A
O956       Eu972   2.468   1_565  S
O957        C980   1.290       .  A
O957       Eu973   2.451       .  S
O958        C981   1.290       .  A
O959        C982   1.291       .  A
O960        C983   1.290       .  A
O960      Eu2174   2.456       .  S
O961        C984   1.290       .  A
O961       Eu974   2.452   1_455  S
O962        C983   1.291   1_545  A
O962       Eu972   2.464   1_556  S
O963        C984   1.292       .  A
O963       Eu973   2.464   1_556  S
O964        C979   1.291       .  A
O964      Eu2170   2.459       .  S
O965        C982   1.292       .  A
O965      Eu2171   2.465       .  S
O966        C981   1.291       .  A
O966       Eu971   2.460       .  S
O967        C980   1.291       .  A
O967       Eu970   2.458   1_455  S
O968        C977   1.292       .  A
O968       Eu974   2.463       .  S
O969        C978   1.292       .  A
Eu970      O2164   2.456       .  S
Eu970      O1851   2.351       .  S
Eu970       O988   2.357   1_654  S
Eu970      O2176   2.358   1_554  S
Eu971      O2165   2.462   1_455  S
Eu971      O1845   2.351   1_456  S
Eu971       O975   2.351       .  S
Eu971      O2186   2.363   1_455  S
Eu972       O976   2.348   1_544  S
Eu973       O988   2.351   1_554  S
Eu974      O2160   2.460       .  S
Eu974      O1586   2.353   1_565  S
Eu974       O988   2.358   1_655  S
Eu974      O2176   2.349       .  S
O976      Eu2170   2.354   1_556  S
O976      Eu2174   2.354       .  S
C977       C1165   1.477       .  S
C978       C1153   1.476       .  S
C979       C1060   1.484       .  S
C980       C1081   1.476       .  S
C981       C1096   1.468       .  S
C982       C1069   1.475       .  S
C983       C1105   1.470       .  S
C984       C1117   1.476       .  S
H985        O986   0.966       .  S
O986      Eu2171   2.363       .  S
O986      Eu1574   2.359       .  S
H987        O988   0.966       .  S
N989        C994   1.354       .  A
N989        C993   1.353       .  A
N989       H1021   1.040       .  S
N990        C997   1.352       .  A
N990        C998   1.352       .  A
N991        C996   1.354       .  A
N991        C995   1.354       .  A
N991       H1022   1.039       .  S
N992        C999   1.351       .  A
N992       C1000   1.350       .  A
C993       C1001   1.387       .  A
C993       C1009   1.417       .  A
C994       C1010   1.414       .  A
C994       C1002   1.386       .  A
C995       C1003   1.387       .  A
C995       C1012   1.417       .  A
C996       C1011   1.417       .  A
C996       C1004   1.387       .  A
C997       C1009   1.416       .  A
C997       C1005   1.387       .  A
C998       C1012   1.414       .  A
C998       C1006   1.386       .  A
C999       C1007   1.386       .  A
C999       C1010   1.412       .  A
C1000      C1008   1.387       .  A
C1000      C1011   1.413       .  A
C1001      C1002   1.376       .  A
C1001      H1013   1.082       .  S
C1002      H1014   1.082       .  S
C1003      C1004   1.375       .  A
C1003      H1015   1.082       .  S
C1004      H1016   1.082       .  S
C1005      C1006   1.374       .  A
C1005      H1017   1.082       .  S
C1006      H1018   1.082       .  S
C1007      C1008   1.374       .  A
C1007      H1019   1.082       .  S
C1008      H1020   1.082       .  S
C1009      C1120   1.495       .  S
C1010      C1108   1.486       .  S
C1011      C1141   1.489       .  S
C1012      C1129   1.493       .  S
N1023      C1028   1.354   1_556  A
N1023      C1027   1.352   1_556  A
N1023      H1055   1.038       .  S
N1024      C1031   1.350   1_554  A
N1024      C1032   1.352   1_554  A
N1025      C1030   1.351   1_556  A
N1025      C1029   1.352   1_556  A
N1025      H1056   1.040       .  S
N1026      C1033   1.350       .  A
N1026      C1034   1.350       .  A
C1027      C1035   1.387       .  A
C1027      C1043   1.416   1_554  A
C1028      C1044   1.416   1_554  A
C1028      C1036   1.387       .  A
C1029      C1037   1.387       .  A
C1029      C1046   1.414       .  A
C1030      C1045   1.413   1_554  A
C1030      C1038   1.387       .  A
C1031      C1043   1.412       .  A
C1031      C1039   1.386       .  A
C1032      C1046   1.414   1_556  A
C1032      C1040   1.386       .  A
C1033      C1041   1.386       .  A
C1033      C1044   1.412       .  A
C1034      C1042   1.387       .  A
C1034      C1045   1.413       .  A
C1035      C1036   1.376       .  A
C1035      H1047   1.082       .  S
C1036      H1048   1.082       .  S
C1037      C1038   1.377       .  A
C1037      H1049   1.082       .  S
C1038      H1050   1.082       .  S
C1039      C1040   1.374       .  A
C1039      H1051   1.082       .  S
C1040      H1052   1.082       .  S
C1041      C1042   1.374       .  A
C1041      H1053   1.082       .  S
C1042      H1054   1.082       .  S
C1043      C1072   1.487       .  S
C1044      C1093   1.485       .  S
C1045      C1084   1.486       .  S
C1046      C1057   1.494       .  S
C1057      C1062   1.415   1_554  A
C1058      C1059   1.398       .  A
C1058      H1067   1.084       .  S
C1059      S1063   1.802       .  S
C1060      C1061   1.404   1_554  A
C1061      C1062   1.401       .  A
C1061      H1068   1.082       .  S
C1062      S1064   1.805       .  S
S1063      H1066   1.403       .  S
S1064      H1065   1.406       .  S
C1069      C1074   1.413       .  A
C1070      C1071   1.401       .  A
C1070      H1079   1.084       .  S
C1071      S1075   1.805       .  S
C1072      C1073   1.401       .  A
C1073      C1074   1.398       .  A
C1073      H1080   1.084       .  S
C1074      S1076   1.801       .  S
S1075      H1078   1.405       .  S
S1076      H1077   1.405       .  S
C1081      C1082   1.404   1_554  A
C1082      C1083   1.398       .  A
C1082      H1091   1.084       .  S
C1083      C1084   1.413       .  A
C1083      S1087   1.805       .  S
C1085      C1086   1.398       .  A
C1085      H1092   1.084       .  S
C1086      S1088   1.802       .  S
S1087      H1090   1.406       .  S
S1088      H1089   1.401       .  S
C1093      C1094   1.403       .  A
C1094      C1095   1.399       .  A
C1094      H1103   1.084       .  S
C1095      C1096   1.411       .  A
C1095      S1099   1.801       .  S
C1097      C1098   1.399       .  A
C1097      H1104   1.082       .  S
C1098      S1100   1.806       .  S
S1099      H1102   1.405       .  S
S1100      H1101   1.404       .  S
C1105      C1110   1.412       .  A
C1106      C1107   1.398       .  A
C1106      H1115   1.079       .  S
C1107      C1108   1.413       .  A
C1107      S1111   1.806       .  S
C1109      C1110   1.400       .  A
C1109      H1116   1.084       .  S
C1110      S1112   1.806       .  S
S1111      H1114   1.402       .  S
S1112      H1113   1.403       .  S
C1117      C1118   1.404       .  A
C1118      C1119   1.399       .  A
C1118      H1127   1.084       .  S
C1119      S1123   1.804       .  S
C1120      C1121   1.404       .  A
C1121      C1122   1.400       .  A
C1121      H1128   1.084       .  S
C1122      S1124   1.806       .  S
S1123      H1126   1.405       .  S
S1124      H1125   1.402       .  S
C1129      C1130   1.405       .  A
C1130      C1131   1.400       .  A
C1130      H1139   1.084       .  S
C1131      C1132   1.413       .  A
C1131      S1135   1.803       .  S
C1133      C1134   1.400       .  A
C1133      H1140   1.084       .  S
C1134      S1136   1.804       .  S
S1135      H1138   1.405       .  S
S1136      H1137   1.406       .  S
C1141      C1146   1.415       .  A
C1142      C1143   1.397       .  A
C1142      H1151   1.084       .  S
C1143      S1147   1.803       .  S
C1144      C1145   1.403       .  A
C1145      C1146   1.402       .  A
C1145      H1152   1.084       .  S
C1146      S1148   1.804       .  S
S1147      H1150   1.405       .  S
S1148      H1149   1.406       .  S
C1153      C1154   1.404       .  A
C1153      C2358   1.413   1_455  A
C1154      C1155   1.400       .  A
C1154      H1163   1.084       .  S
C1155      C1156   1.415       .  A
C1155      S1159   1.805       .  S
C1156      C2357   1.402   1_455  A
C1157      C2356   1.403       .  A
C1157      C1158   1.396       .  A
C1157      H1164   1.084       .  S
C1158      C2353   1.413       .  A
C1158      S1160   1.800       .  S
S1159      H1162   1.406       .  S
S1160      H1161   1.406       .  S
C1165      C2366   1.404       .  A
C1165      C1170   1.414   1_655  A
C1166      C2365   1.403       .  A
C1166      C1167   1.400       .  A
C1166      H1175   1.084       .  S
C1167      C2368   1.414       .  A
C1167      S1171   1.804       .  S
C1168      C2367   1.414       .  A
C1168      C1169   1.405   1_655  A
C1169      C1170   1.400       .  A
C1169      H1176   1.084       .  S
C1170      S1172   1.805       .  S
S1171      H1174   1.406       .  S
S1172      H1173   1.406       .  S
C1177      C1178   1.405       .  A
C1177      C2382   1.413   1_455  A
C1178      C1179   1.402       .  A
C1178      H1187   1.084       .  S
C1179      C1180   1.416       .  A
C1179      S1183   1.809       .  S
C1180      C2381   1.401   1_455  A
C1181      C2380   1.402       .  A
C1181      C1182   1.400       .  A
C1181      H1188   1.082       .  S
C1182      C2377   1.413       .  A
C1182      S1184   1.805       .  S
S1183      H1186   1.401       .  S
S1184      H1185   1.405       .  S
C1189      C1190   1.401       .  A
C1189      C2394   1.415   1_455  A
C1190      C1191   1.399       .  A
C1190      H1199   1.084       .  S
C1191      C1192   1.414       .  A
C1191      S1195   1.800       .  S
C1192      C2393   1.404   1_455  A
C1193      C2392   1.405       .  A
C1193      C1194   1.403       .  A
C1193      H1200   1.084       .  S
C1194      C2389   1.417       .  A
C1194      S1196   1.805       .  S
S1195      H1198   1.404       .  S
S1196      H1197   1.405       .  S
N1201      C1206   1.352       .  A
N1201      C1205   1.353       .  A
N1201      H1233   1.038       .  S
N1202      C1209   1.350       .  A
N1202      C1210   1.351       .  A
N1203      C1208   1.353       .  A
N1203      C1207   1.351       .  A
N1203      H1234   1.040       .  S
N1204      C1211   1.352       .  A
N1204      C1212   1.352       .  A
C1205      C1213   1.387       .  A
C1205      C1221   1.414       .  A
C1206      C1222   1.415       .  A
C1206      C1214   1.388       .  A
C1207      C1215   1.388       .  A
C1207      C1224   1.415       .  A
C1208      C1223   1.413       .  A
C1208      C1216   1.386       .  A
C1209      C1221   1.412       .  A
C1209      C1217   1.386       .  A
C1210      C1224   1.413       .  A
C1210      C1218   1.387       .  A
C1211      C1219   1.386       .  A
C1211      C1222   1.414       .  A
C1212      C1220   1.385       .  A
C1212      C1223   1.414       .  A
C1213      C1214   1.374       .  A
C1213      H1225   1.082       .  S
C1214      H1226   1.082       .  S
C1215      C1216   1.378       .  A
C1215      H1227   1.082       .  S
C1216      H1228   1.082       .  S
C1217      C1218   1.375       .  A
C1217      H1229   1.082       .  S
C1218      H1230   1.082       .  S
C1219      C1220   1.373       .  A
C1219      H1231   1.082       .  S
C1220      H1232   1.082       .  S
C1221      C1489   1.487       .  S
C1222      C1477   1.486       .  S
C1223      C1468   1.492       .  S
C1224      C1456   1.490       .  S
O1235      C1246   1.290       .  A
O1235     Eu1571   2.455   1_554  S
O1236      C1247   1.293       .  A
O1236     Eu1570   2.475       .  S
O1237      C1248   1.292       .  A
O1238      C1249   1.291       .  A
O1238     Eu1843   2.457       .  S
O1239      C1849   1.290       .  A
O1239     Eu1573   2.452       .  S
O1240      C1848   1.289       .  A
O1240     Eu1572   2.451   1_554  S
O1241      C1247   1.288       .  A
O1241     Eu1243   2.446       .  S
O1242      C1246   1.290       .  A
O1242     Eu1843   2.454       .  S
Eu1243     O1838   2.460       .  S
Eu1243     O1842   2.454       .  S
Eu1243     O1853   2.351       .  S
Eu1243     O1244   2.356       .  S
O1244     Eu1573   2.352       .  S
O1244     Eu1570   2.350       .  S
O1245     Eu2172   2.361       .  S
C1246      C1492   1.473       .  S
C1247      C1480   1.471       .  S
C1248      C1444   1.477       .  S
C1248      O1840   1.291       .  A
C1249      C1432   1.474       .  S
C1249      O1839   1.290       .  A
H1250      O1251   0.966       .  S
O1251     Eu1572   2.361   1_554  S
H1252      O1253   0.964       .  S
O1253     Eu1843   2.356       .  S
O1253     Eu1571   2.354   1_554  S
O1253     Eu2173   2.359   1_545  S
O1254      C1277   1.292       .  A
O1254     Eu1270   2.467       .  S
O1255      C1278   1.290       .  A
O1255     Eu1271   2.453       .  S
O1256      C1279   1.290       .  A
O1256     Eu1272   2.456       .  S
O1257      C1280   1.290       .  A
O1257     Eu1273   2.454       .  S
O1258      C1281   1.289       .  A
O1258     Eu1873   2.452   1_545  S
O1259      C1282   1.292       .  A
O1259     Eu1872   2.463       .  S
O1260      C1283   1.291       .  A
O1261      C1284   1.292       .  A
O1261     Eu1274   2.468       .  S
O1262      C1283   1.291       .  A
O1262     Eu1272   2.468       .  S
O1263      C1284   1.292       .  A
O1263     Eu1273   2.467       .  S
O1264      C1279   1.292       .  A
O1265      C1282   1.292       .  A
O1266      C1281   1.291       .  A
O1266     Eu1271   2.461       .  S
O1267      C1280   1.289       .  A
O1267     Eu1270   2.447       .  S
O1268      C1277   1.292       .  A
O1268     Eu1274   2.465       .  S
O1269      C1278   1.292       .  A
O1269     Eu1874   2.462   1_545  S
Eu1270     O1536   2.478       .  S
Eu1270     O1544   2.352       .  S
Eu1270     O1288   2.359       .  S
Eu1271     O1535   2.463       .  S
Eu1271     O1553   2.353       .  S
Eu1271     O1275   2.351       .  S
Eu1272     O1540   2.449       .  S
Eu1272     O1859   2.459       .  S
Eu1272     O2145   2.359       .  S
Eu1272     O1551   2.361       .  S
Eu1272     O1886   2.351       .  S
Eu1272     O1276   2.346       .  S
Eu1273     O1539   2.457       .  S
Eu1273     O1858   2.455       .  S
Eu1273     O1544   2.353       .  S
Eu1273     O2153   2.365       .  S
Eu1273     O1875   2.346       .  S
Eu1273     O1288   2.352       .  S
Eu1274     O1869   2.459       .  S
Eu1274     O1875   2.350       .  S
Eu1274     O1288   2.348       .  S
O1275     Eu1873   2.347   1_545  S
O1275     Eu1874   2.348   1_545  S
C1277      C1465   1.479       .  S
C1278      C1453   1.479       .  S
C1279      C1360   1.478       .  S
C1280      C1381   1.470       .  S
C1281      C1396   1.466       .  S
C1282      C1369   1.476       .  S
C1283      C1405   1.475       .  S
C1284      C1417   1.486       .  S
H1285      O1286   0.966       .  S
O1286     Eu1872   2.356       .  S
H1287      O1288   0.966       .  S
N1289      C1294   1.353   1_565  A
N1289      C1293   1.353   1_565  A
N1289      H1321   1.040       .  S
N1290      C1297   1.351       .  A
N1290      C1298   1.351       .  A
N1291      C1296   1.352   1_565  A
N1291      C1295   1.352   1_565  A
N1291      H1322   1.041       .  S
N1292      C1299   1.350       .  A
N1292      C1300   1.350       .  A
C1293      C1301   1.387       .  A
C1293      C1309   1.417   1_545  A
C1294      C1310   1.414   1_545  A
C1294      C1302   1.386       .  A
C1295      C1303   1.387       .  A
C1295      C1312   1.413   1_545  A
C1296      C1311   1.414       .  A
C1296      C1304   1.387       .  A
C1297      C1309   1.415       .  A
C1297      C1305   1.387       .  A
C1298      C1312   1.412       .  A
C1298      C1306   1.386       .  A
C1299      C1307   1.386       .  A
C1299      C1310   1.412       .  A
C1300      C1308   1.386       .  A
C1300      C1311   1.412   1_565  A
C1301      C1302   1.377       .  A
C1301      H1313   1.082       .  S
C1302      H1314   1.082       .  S
C1303      C1304   1.376       .  A
C1303      H1315   1.082       .  S
C1304      H1316   1.082       .  S
C1305      C1306   1.374       .  A
C1305      H1317   1.082       .  S
C1306      H1318   1.083       .  S
C1307      C1308   1.375       .  A
C1307      H1319   1.082       .  S
C1308      H1320   1.082       .  S
C1309      C1420   1.495       .  S
C1310      C1408   1.486       .  S
C1311      C1441   1.490       .  S
C1312      C1429   1.486       .  S
N1323      C1328   1.353       .  A
N1323      C1327   1.352       .  A
N1323      H1355   1.039       .  S
N1324      C1331   1.351       .  A
N1324      C1332   1.351       .  A
N1325      C1330   1.350       .  A
N1325      C1329   1.351       .  A
N1325      H1356   1.040       .  S
N1326      C1333   1.350       .  A
N1326      C1334   1.350       .  A
C1327      C1335   1.387       .  A
C1327      C1343   1.414       .  A
C1328      C1344   1.415       .  A
C1328      C1336   1.387       .  A
C1329      C1337   1.387       .  A
C1329      C1346   1.411       .  A
C1330      C1345   1.413       .  A
C1330      C1338   1.388       .  A
C1331      C1343   1.412       .  A
C1331      C1339   1.385       .  A
C1332      C1346   1.413       .  A
C1332      C1340   1.386       .  A
C1333      C1341   1.387       .  A
C1333      C1344   1.411       .  A
C1334      C1342   1.386       .  A
C1334      C1345   1.411       .  A
C1335      C1336   1.374       .  A
C1335      H1347   1.082       .  S
C1336      H1348   1.082       .  S
C1337      C1338   1.377       .  A
C1337      H1349   1.082       .  S
C1338      H1350   1.082       .  S
C1339      C1340   1.373       .  A
C1339      H1351   1.082       .  S
C1340      H1352   1.082       .  S
C1341      C1342   1.372       .  A
C1341      H1353   1.082       .  S
C1342      H1354   1.082       .  S
C1343      C1372   1.489       .  S
C1344      C1393   1.484       .  S
C1345      C1384   1.483       .  S
C1346      C1357   1.488       .  S
C1357      C1658   1.401       .  A
C1357      C1362   1.414       .  A
C1358      C1657   1.402       .  A
C1358      C1359   1.397       .  A
C1358      H1367   1.084       .  S
C1359      C1660   1.414       .  A
C1359      S1363   1.800       .  S
C1360      C1659   1.413       .  A
C1360      C1361   1.404       .  A
C1361      C1362   1.400       .  A
C1361      H1368   1.082       .  S
C1362      S1364   1.805       .  S
S1363      H1366   1.405       .  S
S1364      H1365   1.405       .  S
C1369      C1670   1.403       .  A
C1369      C1374   1.413       .  A
C1370      C1669   1.403   1_554  A
C1370      C1371   1.401       .  A
C1370      H1379   1.084       .  S
C1371      C1672   1.413   1_554  A
C1371      S1375   1.803       .  S
C1372      C1671   1.414       .  A
C1372      C1373   1.402       .  A
C1373      C1374   1.398       .  A
C1373      H1380   1.084       .  S
C1374      S1376   1.800       .  S
S1375      H1378   1.406       .  S
S1376      H1377   1.406       .  S
C1381      C1382   1.404       .  A
C1381      C1686   1.414       .  A
C1382      C1383   1.397       .  A
C1382      H1391   1.084       .  S
C1383      C1384   1.412       .  A
C1383      S1387   1.805       .  S
C1384      C1685   1.402       .  A
C1385      C1684   1.401   1_554  A
C1385      C1386   1.396       .  A
C1385      H1392   1.084       .  S
C1386      C1681   1.415       .  A
C1386      S1388   1.802       .  S
S1387      H1390   1.406       .  S
S1388      H1389   1.401       .  S
C1393      C1394   1.403       .  A
C1393      C1698   1.414       .  A
C1394      C1395   1.399       .  A
C1394      H1403   1.084       .  S
C1395      C1396   1.410       .  A
C1395      S1399   1.801       .  S
C1396      C1697   1.399       .  A
C1397      C1696   1.400   1_554  A
C1397      C1398   1.397       .  A
C1397      H1404   1.083       .  S
C1398      C1693   1.413   1_554  A
C1398      S1400   1.805       .  S
S1399      H1402   1.405       .  S
S1400      H1401   1.404       .  S
C1405      C2006   1.401       .  A
C1405      C1410   1.413       .  A
C1406      C2005   1.400   1_545  A
C1406      C1407   1.398       .  A
C1406      H1415   1.080       .  S
C1407      C1408   1.413   1_545  A
C1407      S1411   1.807       .  S
C1408      C2009   1.404       .  A
C1409      C2008   1.403       .  A
C1409      C1410   1.401       .  A
C1409      H1416   1.084       .  S
C1410      S1412   1.806       .  S
S1411      H1414   1.402       .  S
S1412      H1413   1.403       .  S
C1417      C1418   1.406       .  A
C1417      C2022   1.417       .  A
C1418      C1419   1.403       .  A
C1418      H1427   1.084       .  S
C1419      C2020   1.416       .  A
C1419      S1423   1.805       .  S
C1420      C2019   1.415       .  A
C1420      C1421   1.405   1_565  A
C1421      C1422   1.401       .  A
C1421      H1428   1.084       .  S
C1422      C2017   1.417   1_545  A
C1422      S1424   1.806       .  S
S1423      H1426   1.406       .  S
S1424      H1425   1.402       .  S
C1429      C1430   1.403   1_565  A
C1429      C2034   1.413       .  A
C1430      C1431   1.399       .  A
C1430      H1439   1.084       .  S
C1431      C1432   1.413       .  A
C1431      S1435   1.804       .  S
C1432      C2033   1.404   1_545  A
C1433      C2032   1.404       .  A
C1433      C1434   1.398       .  A
C1433      H1440   1.084       .  S
C1434      C2029   1.412       .  A
C1434      S1436   1.804       .  S
S1435      H1438   1.406       .  S
S1436      H1437   1.406       .  S
C1441      C2042   1.403   1_545  A
C1441      C1446   1.415       .  A
C1442      C2041   1.401       .  A
C1442      C1443   1.396       .  A
C1442      H1451   1.084       .  S
C1443      C2044   1.412       .  A
C1443      S1447   1.798       .  S
C1444      C2043   1.415   1_545  A
C1444      C1445   1.403       .  A
C1445      C1446   1.401       .  A
C1445      H1452   1.084       .  S
C1446      S1448   1.805       .  S
S1447      H1450   1.407       .  S
S1448      H1449   1.406       .  S
C1453      C1454   1.405       .  A
C1454      C1455   1.400       .  A
C1454      H1463   1.083       .  S
C1455      C1456   1.414       .  A
C1455      S1459   1.805       .  S
C1457      C1458   1.398       .  A
C1457      H1464   1.084       .  S
C1458      S1460   1.801       .  S
S1459      H1462   1.406       .  S
S1460      H1461   1.406       .  S
C1465      C1470   1.414       .  A
C1466      C1467   1.398       .  A
C1466      H1475   1.083       .  S
C1467      S1471   1.804       .  S
C1468      C1469   1.404       .  A
C1469      C1470   1.402       .  A
C1469      H1476   1.084       .  S
C1470      S1472   1.804       .  S
S1471      H1474   1.406       .  S
S1472      H1473   1.406       .  S
C1477      C1478   1.403       .  A
C1478      C1479   1.400       .  A
C1478      H1487   1.084       .  S
C1479      C1480   1.415       .  A
C1479      S1483   1.805       .  S
C1481      C1482   1.398       .  A
C1481      H1488   1.081       .  S
C1482      S1484   1.805       .  S
S1483      H1486   1.400       .  S
S1484      H1485   1.404       .  S
C1489      C1490   1.403       .  A
C1490      C1491   1.399       .  A
C1490      H1499   1.084       .  S
C1491      C1492   1.414       .  A
C1491      S1495   1.802       .  S
C1493      C1494   1.398       .  A
C1493      H1500   1.084       .  S
C1494      S1496   1.804       .  S
S1495      H1498   1.404       .  S
S1496      H1497   1.406       .  S
N1501      C1506   1.352       .  A
N1501      C1505   1.354       .  A
N1501      H1533   1.038       .  S
N1502      C1509   1.350       .  A
N1502      C1510   1.350       .  A
N1503      C1508   1.352       .  A
N1503      C1507   1.351       .  A
N1503      H1534   1.040       .  S
N1504      C1511   1.351       .  A
N1504      C1512   1.352       .  A
C1505      C1513   1.386       .  A
C1505      C1521   1.415       .  A
C1506      C1522   1.416       .  A
C1506      C1514   1.388       .  A
C1507      C1515   1.388       .  A
C1507      C1524   1.414       .  A
C1508      C1523   1.412       .  A
C1508      C1516   1.386       .  A
C1509      C1521   1.412       .  A
C1509      C1517   1.385       .  A
C1510      C1524   1.413       .  A
C1510      C1518   1.387       .  A
C1511      C1519   1.387       .  A
C1511      C1522   1.414       .  A
C1512      C1520   1.385       .  A
C1512      C1523   1.413       .  A
C1513      C1514   1.376       .  A
C1513      H1525   1.082       .  S
C1514      H1526   1.082       .  S
C1515      C1516   1.377       .  A
C1515      H1527   1.082       .  S
C1516      H1528   1.082       .  S
C1517      C1518   1.374       .  A
C1517      H1529   1.082       .  S
C1518      H1530   1.082       .  S
C1519      C1520   1.372       .  A
C1519      H1531   1.082       .  S
C1520      H1532   1.082       .  S
C1521      C1789   1.490       .  S
C1522      C1777   1.484       .  S
C1523      C1768   1.490       .  S
C1524      C1756   1.489       .  S
O1535      C1546   1.291       .  A
O1536      C1547   1.294       .  A
O1537      C1548   1.292       .  A
O1538      C1549   1.290       .  A
O1538     Eu2143   2.452       .  S
O1539      C2149   1.291       .  A
O1540      C2148   1.289       .  A
O1541      C1547   1.287       .  A
O1541     Eu1543   2.441       .  S
O1542      C1546   1.290       .  A
O1542     Eu2143   2.456       .  S
Eu1543     O2138   2.467       .  S
Eu1543     O2142   2.453       .  S
Eu1543     O2153   2.356       .  S
Eu1543     O1544   2.357       .  S
O1545     Eu1872   2.358       .  S
C1546      C1792   1.477       .  S
C1547      C1780   1.469       .  S
C1548      C1744   1.475       .  S
C1548      O2140   1.291       .  A
C1549      C1732   1.476       .  S
C1549      O2139   1.292   1_545  A
H1550      O1551   0.966       .  S
H1552      O1553   0.964       .  S
O1553     Eu2143   2.354       .  S
O1553     Eu1873   2.359   1_545  S
O1554      C1577   1.291       .  A
O1554     Eu1570   2.460   1_556  S
O1555      C1578   1.290       .  A
O1555     Eu1571   2.455       .  S
O1556      C1579   1.291       .  A
O1556     Eu1572   2.459   1_554  S
O1557      C1580   1.291       .  A
O1557     Eu1573   2.459       .  S
O1558      C1581   1.289       .  A
O1558     Eu2173   2.452   1_546  S
O1559      C1582   1.292       .  A
O1559     Eu2172   2.467   1_556  S
O1560      C1583   1.291       .  A
O1561      C1584   1.293       .  A
O1561     Eu1574   2.472       .  S
O1562      C1583   1.291       .  A
O1562     Eu1572   2.463       .  S
O1563      C1584   1.291       .  A
O1563     Eu1573   2.462   1_556  S
O1564      C1579   1.293       .  A
O1565      C1582   1.291       .  A
O1566      C1581   1.291       .  A
O1566     Eu1571   2.462       .  S
O1567      C1580   1.289       .  A
O1567     Eu1570   2.448       .  S
O1568      C1577   1.293       .  A
O1568     Eu1574   2.470       .  S
O1569      C1578   1.292       .  A
O1569     Eu2174   2.464   1_545  S
Eu1570     O1588   2.361   1_554  S
Eu1571     O1575   2.349       .  S
Eu1572     O2159   2.462       .  S
Eu1572     O1845   2.356   1_556  S
Eu1572     O2186   2.355       .  S
Eu1572     O1576   2.347       .  S
Eu1573     O2158   2.455       .  S
Eu1573     O1853   2.361       .  S
Eu1573     O2175   2.348   1_554  S
Eu1573     O1588   2.350   1_554  S
Eu1574     O2169   2.464       .  S
Eu1574     O2175   2.350       .  S
Eu1574     O1588   2.350       .  S
O1575     Eu2173   2.348   1_546  S
O1575     Eu2174   2.345   1_545  S
C1577      C1765   1.476       .  S
C1578      C1753   1.482       .  S
C1579      C1660   1.481       .  S
C1580      C1681   1.473       .  S
C1581      C1696   1.466       .  S
C1582      C1669   1.474       .  S
C1583      C1705   1.471       .  S
C1584      C1717   1.485       .  S
H1585      O1586   0.966       .  S
O1586     Eu2172   2.354   1_556  S
H1587      O1588   0.966       .  S
N1589      C1594   1.353   1_565  A
N1589      C1593   1.353   1_565  A
N1589      H1621   1.041       .  S
N1590      C1597   1.351       .  A
N1590      C1598   1.350       .  A
N1591      C1596   1.353   1_565  A
N1591      C1595   1.352       .  A
N1591      H1622   1.040       .  S
N1592      C1599   1.350       .  A
N1592      C1600   1.350       .  A
C1593      C1601   1.387       .  A
C1593      C1609   1.416   1_545  A
C1594      C1610   1.413   1_545  A
C1594      C1602   1.386       .  A
C1595      C1603   1.387   1_565  A
C1595      C1612   1.415       .  A
C1596      C1611   1.414   1_545  A
C1596      C1604   1.387       .  A
C1597      C1609   1.414       .  A
C1597      C1605   1.387       .  A
C1598      C1612   1.413       .  A
C1598      C1606   1.386       .  A
C1599      C1607   1.386       .  A
C1599      C1610   1.411       .  A
C1600      C1608   1.386       .  A
C1600      C1611   1.412       .  A
C1601      C1602   1.377       .  A
C1601      H1613   1.082       .  S
C1602      H1614   1.082       .  S
C1603      C1604   1.375       .  A
C1603      H1615   1.082       .  S
C1604      H1616   1.082       .  S
C1605      C1606   1.375       .  A
C1605      H1617   1.082       .  S
C1606      H1618   1.082       .  S
C1607      C1608   1.375       .  A
C1607      H1619   1.082       .  S
C1608      H1620   1.082       .  S
C1609      C1720   1.493       .  S
C1610      C1708   1.486       .  S
C1611      C1741   1.489   1_565  S
C1612      C1729   1.489       .  S
N1623      C1628   1.353       .  A
N1623      C1627   1.353   1_556  A
N1623      H1655   1.039       .  S
N1624      C1631   1.352       .  A
N1624      C1632   1.352       .  A
N1625      C1630   1.351   1_556  A
N1625      C1629   1.351   1_556  A
N1625      H1656   1.039       .  S
N1626      C1633   1.349       .  A
N1626      C1634   1.350       .  A
C1627      C1635   1.386       .  A
C1627      C1643   1.413   1_554  A
C1628      C1644   1.415       .  A
C1628      C1636   1.388   1_556  A
C1629      C1637   1.387       .  A
C1629      C1646   1.413       .  A
C1630      C1645   1.413   1_554  A
C1630      C1638   1.388       .  A
C1631      C1643   1.411       .  A
C1631      C1639   1.384       .  A
C1632      C1646   1.415   1_556  A
C1632      C1640   1.387       .  A
C1633      C1641   1.387       .  A
C1633      C1644   1.411       .  A
C1634      C1642   1.386       .  A
C1634      C1645   1.411       .  A
C1635      C1636   1.375       .  A
C1635      H1647   1.082       .  S
C1636      H1648   1.082       .  S
C1637      C1638   1.377       .  A
C1637      H1649   1.082       .  S
C1638      H1650   1.083       .  S
C1639      C1640   1.373       .  A
C1639      H1651   1.082       .  S
C1640      H1652   1.082       .  S
C1641      C1642   1.371       .  A
C1641      H1653   1.082       .  S
C1642      H1654   1.082       .  S
C1643      C1672   1.488       .  S
C1644      C1693   1.481       .  S
C1645      C1684   1.484       .  S
C1646      C1657   1.490       .  S
C1657      C1662   1.415   1_554  A
C1658      C1659   1.396       .  A
C1658      H1667   1.084       .  S
C1659      S1663   1.798       .  S
C1660      C1661   1.404   1_554  A
C1661      C1662   1.401       .  A
C1661      H1668   1.082       .  S
C1662      S1664   1.805       .  S
S1663      H1666   1.405       .  S
S1664      H1665   1.406       .  S
C1669      C1674   1.412       .  A
C1670      C1671   1.401       .  A
C1670      H1679   1.084       .  S
C1671      S1675   1.804       .  S
C1672      C1673   1.402       .  A
C1673      C1674   1.399       .  A
C1673      H1680   1.084       .  S
C1674      S1676   1.800       .  S
S1675      H1678   1.406       .  S
S1676      H1677   1.405       .  S
C1681      C1682   1.404   1_554  A
C1682      C1683   1.398       .  A
C1682      H1691   1.084       .  S
C1683      C1684   1.412       .  A
C1683      S1687   1.805       .  S
C1685      C1686   1.396       .  A
C1685      H1692   1.084       .  S
C1686      S1688   1.803       .  S
S1687      H1690   1.406       .  S
S1688      H1689   1.402       .  S
C1693      C1694   1.402       .  A
C1694      C1695   1.398       .  A
C1694      H1703   1.084       .  S
C1695      C1696   1.411       .  A
C1695      S1699   1.800       .  S
C1697      C1698   1.397       .  A
C1697      H1704   1.083       .  S
C1698      S1700   1.806       .  S
S1699      H1702   1.405       .  S
S1700      H1701   1.404       .  S
C1705      C2306   1.401       .  A
C1705      C1710   1.413       .  A
C1706      C2305   1.400   1_545  A
C1706      C1707   1.399       .  A
C1706      H1715   1.078       .  S
C1707      C1708   1.413   1_545  A
C1707      S1711   1.808       .  S
C1708      C2309   1.404       .  A
C1709      C2308   1.402       .  A
C1709      C1710   1.400       .  A
C1709      H1716   1.084       .  S
C1710      S1712   1.806       .  S
S1711      H1714   1.401       .  S
S1712      H1713   1.403       .  S
C1717      C1718   1.406       .  A
C1717      C2322   1.416       .  A
C1718      C1719   1.403       .  A
C1718      H1727   1.084       .  S
C1719      C2320   1.415       .  A
C1719      S1723   1.804       .  S
C1720      C2319   1.414       .  A
C1720      C1721   1.404   1_565  A
C1721      C1722   1.400       .  A
C1721      H1728   1.084       .  S
C1722      C2317   1.417   1_545  A
C1722      S1724   1.806       .  S
S1723      H1726   1.406       .  S
S1724      H1725   1.402       .  S
C1729      C1730   1.403   1_565  A
C1729      C2334   1.414       .  A
C1730      C1731   1.398       .  A
C1730      H1739   1.084       .  S
C1731      C1732   1.415       .  A
C1731      S1735   1.805       .  S
C1732      C2333   1.404   1_545  A
C1733      C2332   1.404       .  A
C1733      C1734   1.400       .  A
C1733      H1740   1.084       .  S
C1734      C2329   1.413       .  A
C1734      S1736   1.804       .  S
S1735      H1738   1.406       .  S
S1736      H1737   1.406       .  S
C1741      C2342   1.402   1_545  A
C1741      C1746   1.414       .  A
C1742      C2341   1.401       .  A
C1742      C1743   1.396       .  A
C1742      H1751   1.084       .  S
C1743      C2344   1.412       .  A
C1743      S1747   1.799       .  S
C1744      C2343   1.415   1_545  A
C1744      C1745   1.404       .  A
C1745      C1746   1.401       .  A
C1745      H1752   1.084       .  S
C1746      S1748   1.804       .  S
S1747      H1750   1.406       .  S
S1748      H1749   1.407       .  S
C1753      C1754   1.406       .  A
C1754      C1755   1.400       .  A
C1754      H1763   1.083       .  S
C1755      C1756   1.414       .  A
C1755      S1759   1.805       .  S
C1757      C1758   1.397       .  A
C1757      H1764   1.084       .  S
C1758      S1760   1.799       .  S
S1759      H1762   1.406       .  S
S1760      H1761   1.405       .  S
C1765      C1770   1.414       .  A
C1766      C1767   1.401       .  A
C1766      H1775   1.083       .  S
C1767      S1771   1.803       .  S
C1768      C1769   1.404       .  A
C1769      C1770   1.401       .  A
C1769      H1776   1.084       .  S
C1770      S1772   1.805       .  S
S1771      H1774   1.407       .  S
S1772      H1773   1.406       .  S
C1777      C1778   1.403       .  A
C1778      C1779   1.399       .  A
C1778      H1787   1.084       .  S
C1779      C1780   1.415       .  A
C1779      S1783   1.807       .  S
C1781      C1782   1.396       .  A
C1781      H1788   1.079       .  S
C1782      S1784   1.805       .  S
S1783      H1786   1.400       .  S
S1784      H1785   1.405       .  S
C1789      C1790   1.403       .  A
C1790      C1791   1.401       .  A
C1790      H1799   1.084       .  S
C1791      C1792   1.415       .  A
C1791      S1795   1.801       .  S
C1793      C1794   1.398       .  A
C1793      H1800   1.084       .  S
C1794      S1796   1.804       .  S
S1795      H1798   1.405       .  S
S1796      H1797   1.406       .  S
N1801      C1806   1.355       .  A
N1801      C1805   1.356       .  A
N1801      H1833   1.038       .  S
N1802      C1809   1.350       .  A
N1802      C1810   1.351       .  A
N1803      C1808   1.354       .  A
N1803      C1807   1.353       .  A
N1803      H1834   1.039       .  S
N1804      C1811   1.353       .  A
N1804      C1812   1.353       .  A
C1805      C1813   1.386       .  A
C1805      C1821   1.420       .  A
C1806      C1822   1.421       .  A
C1806      C1814   1.388       .  A
C1807      C1815   1.387       .  A
C1807      C1824   1.416       .  A
C1808      C1823   1.416       .  A
C1808      C1816   1.387       .  A
C1809      C1821   1.413       .  A
C1809      C1817   1.386       .  A
C1810      C1824   1.413       .  A
C1810      C1818   1.387       .  A
C1811      C1819   1.387       .  A
C1811      C1822   1.417       .  A
C1812      C1820   1.386       .  A
C1812      C1823   1.416       .  A
C1813      C1814   1.377       .  A
C1813      H1825   1.082       .  S
C1814      H1826   1.081       .  S
C1815      C1816   1.376       .  A
C1815      H1827   1.082       .  S
C1816      H1828   1.082       .  S
C1817      C1818   1.373       .  A
C1817      H1829   1.082       .  S
C1818      H1830   1.082       .  S
C1819      C1820   1.372       .  A
C1819      H1831   1.082       .  S
C1820      H1832   1.082       .  S
C1821      C2089   1.494       .  S
C1822      C2077   1.494       .  S
C1823      C2068   1.494       .  S
C1824      C2056   1.491       .  S
O1835      C1846   1.292       .  A
O1835     Eu2171   2.468   1_554  S
O1836      C1847   1.294       .  A
O1836     Eu2170   2.477       .  S
O1837      C1848   1.292       .  A
O1838      C1849   1.291       .  A
O1839     Eu2173   2.453   1_545  S
O1840     Eu2172   2.453       .  S
O1841      C1847   1.290       .  A
O1841     Eu1843   2.458   1_565  S
O1842      C1846   1.290       .  A
Eu1843     O1844   2.353   1_545  S
O1844     Eu2173   2.350       .  S
O1844     Eu2170   2.348       .  S
C1846      C2092   1.480       .  S
C1847      C2080   1.476       .  S
C1848      C2044   1.473       .  S
C1849      C2032   1.476       .  S
H1850      O1851   0.966       .  S
O1851     Eu2172   2.361   1_565  S
H1852      O1853   0.964       .  S
O1853     Eu2171   2.353   1_554  S
O1854      C1877   1.291       .  A
O1854     Eu1870   2.461       .  S
O1855      C1878   1.291       .  A
O1855     Eu1871   2.457       .  S
O1856      C1879   1.292       .  A
O1856     Eu1872   2.461   1_565  S
O1857      C1880   1.291       .  A
O1857     Eu1873   2.455       .  S
O1858      C1881   1.290       .  A
O1859      C1882   1.291       .  A
O1860      C1883   1.290       .  A
O1861      C1884   1.292       .  A
O1861     Eu1874   2.465       .  S
O1862      C1883   1.291       .  A
O1862     Eu1872   2.467   1_565  S
O1863      C1884   1.292       .  A
O1863     Eu1873   2.465       .  S
O1864      C1879   1.292       .  A
O1865      C1882   1.291       .  A
O1866      C1881   1.290       .  A
O1866     Eu1871   2.458       .  S
O1867      C1880   1.291       .  A
O1867     Eu1870   2.457       .  S
O1868      C1877   1.292       .  A
O1868     Eu1874   2.465       .  S
O1869      C1878   1.292       .  A
Eu1870     O2136   2.477       .  S
Eu1870     O2144   2.349       .  S
Eu1870     O1888   2.359       .  S
Eu1871     O2135   2.477       .  S
Eu1871     O2153   2.354       .  S
Eu1871     O1875   2.354       .  S
Eu1872     O2140   2.456       .  S
Eu1872     O2151   2.361   1_545  S
Eu1872     O1876   2.347   1_545  S
Eu1873     O2139   2.460       .  S
Eu1873     O2144   2.353       .  S
Eu1873     O1888   2.352       .  S
Eu1874     O1888   2.354       .  S
C1877      C2065   1.477       .  S
C1878      C2053   1.478       .  S
C1879      C1960   1.483       .  S
C1880      C1981   1.478       .  S
C1881      C1996   1.467       .  S
C1882      C1969   1.474       .  S
C1883      C2005   1.473       .  S
C1884      C2017   1.481       .  S
H1885      O1886   0.966       .  S
H1887      O1888   0.966       .  S
N1889      C1894   1.354       .  A
N1889      C1893   1.354       .  A
N1889      H1921   1.040       .  S
N1890      C1897   1.352       .  A
N1890      C1898   1.351       .  A
N1891      C1896   1.353       .  A
N1891      C1895   1.353       .  A
N1891      H1922   1.040       .  S
N1892      C1899   1.350       .  A
N1892      C1900   1.350       .  A
C1893      C1901   1.388       .  A
C1893      C1909   1.418       .  A
C1894      C1910   1.414       .  A
C1894      C1902   1.385       .  A
C1895      C1903   1.388       .  A
C1895      C1912   1.416       .  A
C1896      C1911   1.414       .  A
C1896      C1904   1.387       .  A
C1897      C1909   1.416       .  A
C1897      C1905   1.387       .  A
C1898      C1912   1.412       .  A
C1898      C1906   1.386       .  A
C1899      C1907   1.386       .  A
C1899      C1910   1.411       .  A
C1900      C1908   1.386       .  A
C1900      C1911   1.410       .  A
C1901      C1902   1.376       .  A
C1901      H1913   1.082       .  S
C1902      H1914   1.082       .  S
C1903      C1904   1.375       .  A
C1903      H1915   1.082       .  S
C1904      H1916   1.082       .  S
C1905      C1906   1.375       .  A
C1905      H1917   1.082       .  S
C1906      H1918   1.083       .  S
C1907      C1908   1.374       .  A
C1907      H1919   1.082       .  S
C1908      H1920   1.082       .  S
C1909      C2020   1.498       .  S
C1910      C2008   1.486       .  S
C1911      C2041   1.486       .  S
C1912      C2029   1.490       .  S
N1923      C1928   1.353       .  A
N1923      C1927   1.352       .  A
N1923      H1955   1.038       .  S
N1924      C1931   1.350       .  A
N1924      C1932   1.351       .  A
N1925      C1930   1.352       .  A
N1925      C1929   1.353       .  A
N1925      H1956   1.041       .  S
N1926      C1933   1.350       .  A
N1926      C1934   1.350       .  A
C1927      C1935   1.387       .  A
C1927      C1943   1.415       .  A
C1928      C1944   1.415       .  A
C1928      C1936   1.387       .  A
C1929      C1937   1.386       .  A
C1929      C1946   1.414       .  A
C1930      C1945   1.415       .  A
C1930      C1938   1.387       .  A
C1931      C1943   1.412       .  A
C1931      C1939   1.386       .  A
C1932      C1946   1.413       .  A
C1932      C1940   1.386       .  A
C1933      C1941   1.386       .  A
C1933      C1944   1.411       .  A
C1934      C1942   1.387       .  A
C1934      C1945   1.413       .  A
C1935      C1936   1.376       .  A
C1935      H1947   1.082       .  S
C1936      H1948   1.082       .  S
C1937      C1938   1.377       .  A
C1937      H1949   1.082       .  S
C1938      H1950   1.082       .  S
C1939      C1940   1.374       .  A
C1939      H1951   1.082       .  S
C1940      H1952   1.082       .  S
C1941      C1942   1.373       .  A
C1941      H1953   1.082       .  S
C1942      H1954   1.082       .  S
C1943      C1972   1.487       .  S
C1944      C1993   1.484       .  S
C1945      C1984   1.490       .  S
C1946      C1957   1.493       .  S
C1957      C2258   1.403       .  A
C1957      C1962   1.414       .  A
C1958      C2257   1.403       .  A
C1958      C1959   1.398       .  A
C1958      H1967   1.084       .  S
C1959      C2260   1.415       .  A
C1959      S1963   1.802       .  S
C1960      C2259   1.416       .  A
C1960      C1961   1.404       .  A
C1961      C1962   1.400       .  A
C1961      H1968   1.083       .  S
C1962      S1964   1.804       .  S
S1963      H1966   1.403       .  S
S1964      H1965   1.407       .  S
C1969      C2270   1.403       .  A
C1969      C1974   1.412       .  A
C1970      C2269   1.403   1_554  A
C1970      C1971   1.401       .  A
C1970      H1979   1.084       .  S
C1971      C2272   1.415       .  A
C1971      S1975   1.805       .  S
C1972      C2271   1.414       .  A
C1972      C1973   1.401       .  A
C1973      C1974   1.397       .  A
C1973      H1980   1.084       .  S
C1974      S1976   1.799       .  S
S1975      H1978   1.405       .  S
S1976      H1977   1.406       .  S
C1981      C1982   1.405       .  A
C1981      C2286   1.415       .  A
C1982      C1983   1.398       .  A
C1982      H1991   1.084       .  S
C1983      C1984   1.414       .  A
C1983      S1987   1.805       .  S
C1984      C2285   1.404       .  A
C1985      C2284   1.403       .  A
C1985      C1986   1.398       .  A
C1985      H1992   1.084       .  S
C1986      C2281   1.416       .  A
C1986      S1988   1.803       .  S
S1987      H1990   1.406       .  S
S1988      H1989   1.401       .  S
C1993      C1994   1.402       .  A
C1993      C2298   1.412       .  A
C1994      C1995   1.400       .  A
C1994      H2003   1.084       .  S
C1995      C1996   1.412       .  A
C1995      S1999   1.803       .  S
C1996      C2297   1.400       .  A
C1997      C2296   1.400   1_554  A
C1997      C1998   1.399       .  A
C1997      H2004   1.083       .  S
C1998      C2293   1.414       .  A
C1998      S2000   1.807       .  S
S1999      H2002   1.404       .  S
S2000      H2001   1.403       .  S
C2005      C2010   1.414       .  A
C2006      C2007   1.400       .  A
C2006      H2015   1.078       .  S
C2007      C2008   1.413       .  A
C2007      S2011   1.807       .  S
C2009      C2010   1.403       .  A
C2009      H2016   1.084       .  S
C2010      S2012   1.807       .  S
S2011      H2014   1.402       .  S
S2012      H2013   1.403       .  S
C2017      C2018   1.405       .  A
C2018      C2019   1.401       .  A
C2018      H2027   1.084       .  S
C2019      S2023   1.805       .  S
C2020      C2021   1.404       .  A
C2021      C2022   1.401       .  A
C2021      H2028   1.084       .  S
C2022      S2024   1.805       .  S
S2023      H2026   1.406       .  S
S2024      H2025   1.404       .  S
C2029      C2030   1.404       .  A
C2030      C2031   1.400       .  A
C2030      H2039   1.084       .  S
C2031      C2032   1.414       .  A
C2031      S2035   1.804       .  S
C2033      C2034   1.398       .  A
C2033      H2040   1.084       .  S
C2034      S2036   1.804       .  S
S2035      H2038   1.406       .  S
S2036      H2037   1.406       .  S
C2041      C2046   1.415       .  A
C2042      C2043   1.397       .  A
C2042      H2051   1.084       .  S
C2043      S2047   1.803       .  S
C2044      C2045   1.402       .  A
C2045      C2046   1.401       .  A
C2045      H2052   1.084       .  S
C2046      S2048   1.804       .  S
S2047      H2050   1.405       .  S
S2048      H2049   1.406       .  S
C2053      C2054   1.404       .  A
C2054      C2055   1.400       .  A
C2054      H2063   1.084       .  S
C2055      C2056   1.414       .  A
C2055      S2059   1.804       .  S
C2057      C2058   1.397       .  A
C2057      H2064   1.084       .  S
C2058      S2060   1.799       .  S
S2059      H2062   1.406       .  S
S2060      H2061   1.405       .  S
C2065      C2070   1.413       .  A
C2066      C2067   1.400       .  A
C2066      H2075   1.083       .  S
C2067      S2071   1.805       .  S
C2068      C2069   1.404       .  A
C2069      C2070   1.399       .  A
C2069      H2076   1.084       .  S
C2070      S2072   1.805       .  S
S2071      H2074   1.406       .  S
S2072      H2073   1.406       .  S
C2077      C2078   1.406       .  A
C2078      C2079   1.404       .  A
C2078      H2087   1.084       .  S
C2079      C2080   1.416       .  A
C2079      S2083   1.810       .  S
C2081      C2082   1.399       .  A
C2081      H2088   1.081       .  S
C2082      S2084   1.805       .  S
S2083      H2086   1.401       .  S
S2084      H2085   1.405       .  S
C2089      C2090   1.402       .  A
C2090      C2091   1.399       .  A
C2090      H2099   1.084       .  S
C2091      C2092   1.414       .  A
C2091      S2095   1.800       .  S
C2093      C2094   1.401       .  A
C2093      H2100   1.084       .  S
C2094      S2096   1.804       .  S
S2095      H2098   1.405       .  S
S2096      H2097   1.406       .  S
N2101      C2106   1.354       .  A
N2101      C2105   1.356       .  A
N2101      H2133   1.038       .  S
N2102      C2109   1.352       .  A
N2102      C2110   1.352       .  A
N2103      C2108   1.353       .  A
N2103      C2107   1.352       .  A
N2103      H2134   1.040       .  S
N2104      C2111   1.351       .  A
N2104      C2112   1.352       .  A
C2105      C2113   1.387       .  A
C2105      C2121   1.421       .  A
C2106      C2122   1.420       .  A
C2106      C2114   1.387       .  A
C2107      C2115   1.387       .  A
C2107      C2124   1.415       .  A
C2108      C2123   1.413       .  A
C2108      C2116   1.386       .  A
C2109      C2121   1.415       .  A
C2109      C2117   1.386       .  A
C2110      C2124   1.415       .  A
C2110      C2118   1.387       .  A
C2111      C2119   1.388       .  A
C2111      C2122   1.415       .  A
C2112      C2120   1.385       .  A
C2112      C2123   1.413       .  A
C2113      C2114   1.378       .  A
C2113      H2125   1.082       .  S
C2114      H2126   1.082       .  S
C2115      C2116   1.375       .  A
C2115      H2127   1.082       .  S
C2116      H2128   1.082       .  S
C2117      C2118   1.374       .  A
C2117      H2129   1.082       .  S
C2118      H2130   1.082       .  S
C2119      C2120   1.373       .  A
C2119      H2131   1.082       .  S
C2120      H2132   1.082       .  S
C2121      C2389   1.497       .  S
C2122      C2377   1.490       .  S
C2123      C2368   1.491       .  S
C2124      C2356   1.491       .  S
O2135      C2146   1.294       .  A
O2136      C2147   1.294       .  A
O2137      C2148   1.292       .  A
O2138      C2149   1.292       .  A
O2141      C2147   1.289       .  A
O2141     Eu2143   2.454   1_565  S
O2142      C2146   1.290       .  A
Eu2143     O2144   2.357   1_545  S
C2146      C2392   1.484       .  S
C2147      C2380   1.474       .  S
C2148      C2344   1.472       .  S
C2149      C2332   1.478       .  S
H2150      O2151   0.966       .  S
H2152      O2153   0.964       .  S
O2154      C2177   1.292       .  A
O2154     Eu2170   2.461   1_556  S
O2155      C2178   1.291       .  A
O2155     Eu2171   2.454       .  S
O2156      C2179   1.292       .  A
O2156     Eu2172   2.464   1_565  S
O2157      C2180   1.291       .  A
O2157     Eu2173   2.455       .  S
O2158      C2181   1.290   1_554  A
O2159      C2182   1.292       .  A
O2160      C2183   1.290       .  A
O2161      C2184   1.292       .  A
O2161     Eu2174   2.462       .  S
O2162      C2183   1.292       .  A
O2162     Eu2172   2.471   1_566  S
O2163      C2184   1.292       .  A
O2163     Eu2173   2.463   1_556  S
O2164      C2179   1.291       .  A
O2165      C2182   1.291       .  A
O2166      C2181   1.290       .  A
O2166     Eu2171   2.459       .  S
O2167      C2180   1.291       .  A
O2167     Eu2170   2.456       .  S
O2168      C2177   1.290       .  A
O2168     Eu2174   2.452       .  S
O2169      C2178   1.292       .  A
Eu2170     O2188   2.360   1_554  S
Eu2171     O2175   2.356       .  S
Eu2172     O2176   2.347   1_544  S
Eu2173     O2188   2.350   1_554  S
Eu2174     O2188   2.357       .  S
C2177      C2365   1.472       .  S
C2178      C2353   1.478       .  S
C2179      C2260   1.480       .  S
C2180      C2281   1.477       .  S
C2181      C2296   1.466       .  S
C2182      C2269   1.474       .  S
C2183      C2305   1.475       .  S
C2184      C2317   1.481       .  S
H2185      O2186   0.966       .  S
H2187      O2188   0.966       .  S
N2189      C2194   1.354       .  A
N2189      C2193   1.354       .  A
N2189      H2221   1.040       .  S
N2190      C2197   1.352       .  A
N2190      C2198   1.352       .  A
N2191      C2196   1.354       .  A
N2191      C2195   1.354       .  A
N2191      H2222   1.040       .  S
N2192      C2199   1.350       .  A
N2192      C2200   1.349       .  A
C2193      C2201   1.387       .  A
C2193      C2209   1.418       .  A
C2194      C2210   1.414       .  A
C2194      C2202   1.386       .  A
C2195      C2203   1.387       .  A
C2195      C2212   1.416       .  A
C2196      C2211   1.415       .  A
C2196      C2204   1.387       .  A
C2197      C2209   1.416       .  A
C2197      C2205   1.387       .  A
C2198      C2212   1.414       .  A
C2198      C2206   1.386       .  A
C2199      C2207   1.386       .  A
C2199      C2210   1.411       .  A
C2200      C2208   1.387       .  A
C2200      C2211   1.411       .  A
C2201      C2202   1.377       .  A
C2201      H2213   1.082       .  S
C2202      H2214   1.082       .  S
C2203      C2204   1.375       .  A
C2203      H2215   1.082       .  S
C2204      H2216   1.082       .  S
C2205      C2206   1.375       .  A
C2205      H2217   1.082       .  S
C2206      H2218   1.082       .  S
C2207      C2208   1.374       .  A
C2207      H2219   1.082       .  S
C2208      H2220   1.082       .  S
C2209      C2320   1.497       .  S
C2210      C2308   1.485       .  S
C2211      C2341   1.487       .  S
C2212      C2329   1.492       .  S
N2223      C2228   1.353   1_556  A
N2223      C2227   1.353   1_556  A
N2223      H2255   1.038       .  S
N2224      C2231   1.351   1_554  A
N2224      C2232   1.352   1_554  A
N2225      C2230   1.352       .  A
N2225      C2229   1.353       .  A
N2225      H2256   1.040   1_554  S
N2226      C2233   1.351   1_554  A
N2226      C2234   1.350   1_554  A
C2227      C2235   1.387       .  A
C2227      C2243   1.416       .  A
C2228      C2244   1.415   1_554  A
C2228      C2236   1.387       .  A
C2229      C2237   1.386       .  A
C2229      C2246   1.414       .  A
C2230      C2245   1.415       .  A
C2230      C2238   1.387       .  A
C2231      C2243   1.412   1_556  A
C2231      C2239   1.386       .  A
C2232      C2246   1.414   1_556  A
C2232      C2240   1.386       .  A
C2233      C2241   1.386       .  A
C2233      C2244   1.412       .  A
C2234      C2242   1.387       .  A
C2234      C2245   1.414   1_556  A
C2235      C2236   1.375       .  A
C2235      H2247   1.082       .  S
C2236      H2248   1.082       .  S
C2237      C2238   1.376       .  A
C2237      H2249   1.082       .  S
C2238      H2250   1.082       .  S
C2239      C2240   1.372       .  A
C2239      H2251   1.082       .  S
C2240      H2252   1.082       .  S
C2241      C2242   1.372       .  A
C2241      H2253   1.082       .  S
C2242      H2254   1.082       .  S
C2243      C2272   1.487       .  S
C2244      C2293   1.484   1_556  S
C2245      C2284   1.489       .  S
C2246      C2257   1.493       .  S
C2257      C2262   1.416   1_554  A
C2258      C2259   1.399       .  A
C2258      H2267   1.084       .  S
C2259      S2263   1.801       .  S
C2260      C2261   1.403   1_554  A
C2261      C2262   1.400       .  A
C2261      H2268   1.083       .  S
C2262      S2264   1.805       .  S
S2263      H2266   1.404       .  S
S2264      H2265   1.405       .  S
C2269      C2274   1.411       .  A
C2270      C2271   1.401       .  A
C2270      H2279   1.084       .  S
C2271      S2275   1.804       .  S
C2272      C2273   1.402   1_554  A
C2273      C2274   1.398       .  A
C2273      H2280   1.084       .  S
C2274      S2276   1.801       .  S
S2275      H2278   1.406       .  S
S2276      H2277   1.406       .  S
C2281      C2282   1.404   1_554  A
C2282      C2283   1.398       .  A
C2282      H2291   1.084       .  S
C2283      C2284   1.413   1_556  A
C2283      S2287   1.805       .  S
C2285      C2286   1.398       .  A
C2285      H2292   1.084       .  S
C2286      S2288   1.803       .  S
S2287      H2290   1.406       .  S
S2288      H2289   1.401       .  S
C2293      C2294   1.403   1_554  A
C2294      C2295   1.398       .  A
C2294      H2303   1.084       .  S
C2295      C2296   1.410       .  A
C2295      S2299   1.802       .  S
C2297      C2298   1.397       .  A
C2297      H2304   1.082       .  S
C2298      S2300   1.803       .  S
S2299      H2302   1.405       .  S
S2300      H2301   1.405       .  S
C2305      C2310   1.412       .  A
C2306      C2307   1.399       .  A
C2306      H2315   1.080       .  S
C2307      C2308   1.412       .  A
C2307      S2311   1.803       .  S
C2309      C2310   1.402       .  A
C2309      H2316   1.084       .  S
C2310      S2312   1.805       .  S
S2311      H2314   1.404       .  S
S2312      H2313   1.404       .  S
C2317      C2318   1.405       .  A
C2318      C2319   1.401       .  A
C2318      H2327   1.084       .  S
C2319      S2323   1.805       .  S
C2320      C2321   1.404       .  A
C2321      C2322   1.401       .  A
C2321      H2328   1.084       .  S
C2322      S2324   1.805       .  S
S2323      H2326   1.406       .  S
S2324      H2325   1.403       .  S
C2329      C2330   1.405       .  A
C2330      C2331   1.401       .  A
C2330      H2339   1.084       .  S
C2331      C2332   1.413       .  A
C2331      S2335   1.804       .  S
C2333      C2334   1.399       .  A
C2333      H2340   1.084       .  S
C2334      S2336   1.805       .  S
S2335      H2338   1.406       .  S
S2336      H2337   1.406       .  S
C2341      C2346   1.415       .  A
C2342      C2343   1.397       .  A
C2342      H2351   1.084       .  S
C2343      S2347   1.803       .  S
C2344      C2345   1.402       .  A
C2345      C2346   1.400       .  A
C2345      H2352   1.084       .  S
C2346      S2348   1.804       .  S
S2347      H2350   1.405       .  S
S2348      H2349   1.406       .  S
C2353      C2354   1.404       .  A
C2354      C2355   1.401       .  A
C2354      H2363   1.084       .  S
C2355      C2356   1.416       .  A
C2355      S2359   1.805       .  S
C2357      C2358   1.396       .  A
C2357      H2364   1.084       .  S
C2358      S2360   1.800       .  S
S2359      H2362   1.406       .  S
S2360      H2361   1.406       .  S
C2365      C2370   1.412       .  A
C2366      C2367   1.401       .  A
C2366      H2375   1.083       .  S
C2367      S2371   1.804       .  S
C2368      C2369   1.404       .  A
C2369      C2370   1.399       .  A
C2369      H2376   1.084       .  S
C2370      S2372   1.805       .  S
S2371      H2374   1.406       .  S
S2372      H2373   1.406       .  S
C2377      C2378   1.404       .  A
C2378      C2379   1.402       .  A
C2378      H2387   1.084       .  S
C2379      C2380   1.415       .  A
C2379      S2383   1.808       .  S
C2381      C2382   1.398       .  A
C2381      H2388   1.081       .  S
C2382      S2384   1.805       .  S
S2383      H2386   1.401       .  S
S2384      H2385   1.405       .  S
C2389      C2390   1.404       .  A
C2390      C2391   1.401       .  A
C2390      H2399   1.084       .  S
C2391      C2392   1.414       .  A
C2391      S2395   1.801       .  S
C2393      C2394   1.402       .  A
C2393      H2400   1.084       .  S
C2394      S2396   1.804       .  S
S2395      H2398   1.405       .  S
S2396      H2397   1.406       .  S
