geometry optimzed in LAMMPS
_audit_creation_date              2020-11-30 
_audit_creation_method            'lammps2cif' 
_symmetry_space_group_name_H-M    'P1' 
_symmetry_Int_Tables_number       1 
_symmetry_cell_setting            triclinic 
loop_ 
_symmetry_equiv_pos_as_xyz 
  x,y,z 
_cell_length_a                    91.22544992 
_cell_length_b                    91.42199549628798 
_cell_length_c                    91.33462114240591 
_cell_angle_alpha                 90.23499900854807 
_cell_angle_beta                  89.94017621608371 
_cell_angle_gamma                 90.21477494824707 
loop_ 
_atom_site_label 
_atom_site_type_symbol 
_atom_site_fract_x 
_atom_site_fract_y 
_atom_site_fract_z 
_atom_site_charge 
O1          O  0.73359624  0.59014285  0.82325434    -0.57500
C2          C  0.71378265  0.58353212  0.86378550     0.75200
O3          O  0.68333419  0.59330765  0.82672000    -0.58600
C4          C  0.73030229  0.58936562  0.80977567     0.75100
C5          C  0.70471190  0.55275397  0.82652788     0.77500
Cd6        Cd  0.70853446  0.58393380  0.83240237     1.37500
O7          O  0.72131157  0.59191178  0.85568286    -0.57500
O8          O  0.71710358  0.55897914  0.82727020    -0.56300
C9          C  0.68625282  0.60664148  0.82929429     0.77500
O10         O  0.69366532  0.56097663  0.82835421    -0.58600
O11         O  0.70448325  0.57554974  0.85731057    -0.57100
O12         O  0.71694239  0.58684096  0.80691454    -0.57100
O13         O  0.69932445  0.60938108  0.83302843    -0.56300
O14         O  0.81975637  0.58959659  0.73233469    -0.57500
C15         C  0.85940167  0.58401056  0.71266873     0.75200
O16         O  0.82377577  0.56047453  0.69185970    -0.58600
C17         C  0.80611220  0.58848806  0.72988524     0.75100
C18         C  0.82326537  0.60473247  0.68328515     0.77500
Cd19       Cd  0.82780468  0.58346919  0.70675306     1.37500
O20         O  0.85112342  0.59365709  0.71819990    -0.57500
O21         O  0.82399393  0.60818422  0.69668614    -0.56300
C22         C  0.82241697  0.55233518  0.70300038     0.77500
O23         O  0.82408039  0.59118394  0.68049092    -0.58600
O24         O  0.85311848  0.57463899  0.70464039    -0.57100
O25         O  0.80255865  0.58571503  0.71674675    -0.57100
O26         O  0.82298541  0.55872407  0.71529255    -0.56300
O27         O  0.59741151  0.73586620  0.82378736    -0.57500
C28         C  0.59550984  0.71676868  0.86352493     0.75200
O29         O  0.56701419  0.69953451  0.82269152    -0.58600
C30         C  0.59525632  0.73326688  0.81032906     0.75100
C31         C  0.61140457  0.68699016  0.82774541     0.77500
Cd32       Cd  0.59042940  0.71073088  0.83252616     1.37500
O33         O  0.59156946  0.72686039  0.85492927    -0.57500
O34         O  0.61525806  0.70027820  0.82893120    -0.56300
C35         C  0.55875930  0.70591925  0.83183934     0.77500
O36         O  0.59771091  0.68456582  0.82826934    -0.58600
O37         O  0.59749514  0.70434459  0.85770281    -0.57100
O38         O  0.59157767  0.72028662  0.80719764    -0.57100
O39         O  0.56519015  0.71376172  0.84126019    -0.56300
O40         O  0.58920657  0.82437127  0.73667557    -0.57500
C41         C  0.58842624  0.86341016  0.71978008     0.75200
O42         O  0.58927524  0.82782891  0.68529828    -0.58600
C43         C  0.58969237  0.81088160  0.73340705     0.75100
C44         C  0.55111265  0.83189665  0.70572416     0.77500
Cd45       Cd  0.58263751  0.83311167  0.71166784     1.37500
O46         O  0.57899979  0.85594707  0.72672690    -0.57500
O47         O  0.55912928  0.84183897  0.70033835    -0.56300
C48         C  0.60300506  0.82818441  0.68757610     0.77500
O49         O  0.55772977  0.82227285  0.71305705    -0.58600
O50         O  0.59547026  0.85664301  0.70999136    -0.57100
O51         O  0.58714983  0.80773535  0.72014193    -0.57100
O52         O  0.60688178  0.83004223  0.70073606    -0.56300
O53         O  0.85072980  0.71900910  0.59885247    -0.57500
C54         C  0.80441621  0.73080572  0.59355516     0.75200
O55         O  0.82179435  0.69505424  0.56446290    -0.58600
C56         C  0.85892820  0.71422964  0.58870512     0.75100
C57         C  0.82331106  0.68435884  0.60783613     0.77500
Cd58       Cd  0.82717628  0.70891412  0.58764846     1.37500
O59         O  0.81793273  0.73399608  0.59440693    -0.57500
O60         O  0.82521573  0.69744000  0.61200604    -0.56300
C61         C  0.82294500  0.70613191  0.55619526     0.77500
O62         O  0.82281588  0.68239662  0.59410294    -0.58600
O63         O  0.80152652  0.71753609  0.59073557    -0.57100
O64         O  0.85245741  0.70745147  0.57851241    -0.57100
O65         O  0.82553147  0.71820316  0.56254153    -0.56300
O66         O  0.72822908  0.82078982  0.59373425    -0.57500
C67         C  0.71089058  0.86116977  0.58639511     0.75200
O68         O  0.68959444  0.82602773  0.56279501    -0.58600
C69         C  0.72551709  0.80733386  0.59164900     0.75100
C70         C  0.68009442  0.82723298  0.60862965     0.77500
Cd71       Cd  0.70356459  0.83004161  0.58648463     1.37500
O72         O  0.71737244  0.85251864  0.59501387    -0.57500
O73         O  0.69336858  0.82970242  0.61180619    -0.56300
C74         C  0.70102066  0.82584277  0.55483154     0.77500
O75         O  0.67744780  0.82554443  0.59509973    -0.58600
O76         O  0.70100110  0.85553940  0.57848501    -0.57100
O77         O  0.71248028  0.80427687  0.58789728    -0.57100
O78         O  0.71307471  0.82719119  0.56153359    -0.56300
O79         O  0.68025855  0.99637073  0.58950387    -0.57500
C80         C  0.70168379  0.00522245  0.55276083     0.75200
O81         O  0.72473198  0.01891675  0.58740726    -0.58600
C82         C  0.68268297  0.99315846  0.60278935     0.75100
C83         C  0.71866609  0.96920685  0.58121739     0.77500
Cd84       Cd  0.70628335  0.99842592  0.58291432     1.37500
O85         O  0.69103015  0.00119866  0.56075341    -0.57500
O86         O  0.70927646  0.97420323  0.57243409    -0.56300
C87         C  0.71512127  0.02740678  0.59283553     0.77500
O88         O  0.72356062  0.97816594  0.59073505    -0.58600
O89         O  0.71405986  0.00640401  0.55893767    -0.57100
O90         O  0.69597358  0.99172180  0.60652957    -0.57100
O91         O  0.70249081  0.02197845  0.59448610    -0.56300
O92         O  0.55879139  0.99433954  0.68459568    -0.57500
C93         C  0.60262845  0.99748678  0.67679069     0.75200
O94         O  0.59019067  0.01992125  0.71368160    -0.58600
C95         C  0.55096042  0.99112826  0.69563637     0.75100
C96         C  0.58918780  0.97087527  0.71261774     0.77500
Cd97       Cd  0.58123234  0.99800115  0.69921802     1.37500
O98         O  0.58912256  0.99625897  0.67360602    -0.57500
O99         O  0.59084649  0.97356842  0.69917043    -0.56300
C100        C  0.58154999  0.02864396  0.70722591     0.77500
O101        O  0.58441196  0.98123671  0.72062346    -0.58600
O102        O  0.60580893  0.99963347  0.69012105    -0.57100
O103        O  0.55732258  0.99093025  0.70794991    -0.57100
O104        O  0.57288554  0.02296356  0.69803246    -0.56300
O105        O  0.81937433  0.40526667  0.73186603    -0.57500
C106        C  0.85958281  0.41246146  0.71509496     0.75200
O107        O  0.82906783  0.40434099  0.68038359    -0.58600
C108        C  0.80582482  0.40527886  0.72875738     0.75100
C109        C  0.82231918  0.44280780  0.70325454     0.77500
Cd110      Cd  0.82850264  0.41192201  0.70695277     1.37500
O111        O  0.85120749  0.40214798  0.71910734    -0.57500
O112        O  0.82257759  0.43647771  0.71553051    -0.56300
C113        C  0.82653280  0.39090227  0.68255064     0.77500
O114        O  0.82404770  0.43464634  0.69212451    -0.58600
O115        O  0.85363005  0.42236854  0.70762133    -0.57100
O116        O  0.80273186  0.40780200  0.71547190    -0.57100
O117        O  0.82450539  0.38732238  0.69576117    -0.56300
O118        O  0.73206373  0.40615429  0.82050127    -0.57500
C119        C  0.71479157  0.41385011  0.86070615     0.75200
O120        O  0.69223685  0.43538870  0.82666617    -0.58600
C121        C  0.72867910  0.40545699  0.80705230     0.75100
C122        C  0.68423203  0.38941369  0.82835841     0.77500
Cd123      Cd  0.70706658  0.41226262  0.82963399     1.37500
O124        O  0.71947128  0.40367802  0.85252409    -0.57500
O125        O  0.69740767  0.38683225  0.83168643    -0.56300
C126        C  0.70315486  0.44328706  0.82310378     0.77500
O127        O  0.68141658  0.40262174  0.82523422    -0.58600
O128        O  0.70691463  0.42332758  0.85452422    -0.57100
O129        O  0.71524343  0.40731689  0.80410990    -0.57100
O130        O  0.71527024  0.43669361  0.82193452    -0.56300
O131        O  0.59087260  0.27342388  0.85308984    -0.57500
C132        C  0.59133602  0.26602351  0.80654796     0.75200
O133        O  0.56241205  0.30094048  0.82293230    -0.58600
C134        C  0.58341652  0.28202832  0.86106251     0.75100
C135        C  0.60744436  0.30996903  0.82832119     0.77500
Cd136      Cd  0.58502853  0.28701748  0.82970544     1.37500
O137        O  0.59220945  0.26256440  0.81996095    -0.57500
O138        O  0.61055940  0.29672043  0.83076427    -0.56300
C139        C  0.55383556  0.29003231  0.82403360     0.77500
O140        O  0.59401102  0.31261395  0.82601797    -0.58600
O141        O  0.58829440  0.27926242  0.80393582    -0.57100
O142        O  0.57718366  0.29243631  0.85452194    -0.57100
O143        O  0.55970883  0.27798992  0.82738282    -0.56300
O144        O  0.82367189  0.26323041  0.58997518    -0.57500
C145        C  0.86182080  0.27929973  0.58979650     0.75200
O146        O  0.82000334  0.29733305  0.56085219    -0.58600
C147        C  0.81012530  0.26570685  0.58839147     0.75100
C148        C  0.82846134  0.31350565  0.60409429     0.77500
Cd149      Cd  0.83208014  0.28882924  0.58397901     1.37500
O150        O  0.85433423  0.27393127  0.57940399    -0.57500
O151        O  0.82579229  0.30037567  0.60756108    -0.56300
C152        C  0.83147921  0.29670350  0.55307729     0.77500
O153        O  0.83240173  0.31554914  0.59095142    -0.58600
O154        O  0.85529314  0.28842263  0.59794702    -0.57100
O155        O  0.80684498  0.27868593  0.58503068    -0.57100
O156        O  0.84305550  0.29312562  0.55971005    -0.56300
O157        O  0.59002683  0.17801261  0.72838788    -0.57500
C158        C  0.58287026  0.13797361  0.70867391     0.75200
O159        O  0.55825263  0.17559626  0.69161711    -0.58600
C160        C  0.58898002  0.19158999  0.72583714     0.75100
C161        C  0.60439319  0.17315979  0.68077633     0.77500
Cd162      Cd  0.58233258  0.16947231  0.70386547     1.37500
O163        O  0.59127625  0.14632786  0.71595391    -0.57500
O164        O  0.60748053  0.17036593  0.69395878    -0.56300
C165        C  0.55061193  0.17376199  0.70312149     0.77500
O166        O  0.59084483  0.17452709  0.67795630    -0.58600
O167        O  0.57470559  0.14416673  0.69942281    -0.57100
O168        O  0.58539337  0.19503261  0.71290684    -0.57100
O169        O  0.55766712  0.17040103  0.71453201    -0.56300
O170        O  0.73436578  0.17510332  0.59301950    -0.57500
C171        C  0.71507344  0.13593762  0.59345637     0.75200
O172        O  0.68295326  0.17043519  0.59253605    -0.58600
C173        C  0.73181507  0.18857628  0.59128052     0.75100
C174        C  0.70559155  0.16584597  0.55428838     0.77500
Cd175      Cd  0.70936760  0.16634198  0.58606487     1.37500
O176        O  0.72549448  0.14457957  0.59036420    -0.57500
O177        O  0.71434096  0.15760919  0.56103053    -0.56300
C178        C  0.68520481  0.17238175  0.60610711     0.77500
O179        O  0.69806081  0.17436280  0.56222827    -0.58600
O180        O  0.70236686  0.14143833  0.59347678    -0.57100
O181        O  0.71886175  0.19177157  0.58758616    -0.57100
O182        O  0.69847887  0.17198207  0.61015177    -0.56300
O183        O  0.99423939  0.31649159  0.59205550    -0.57500
C184        C  0.98977224  0.29615934  0.55295682     0.75200
O185        O  0.01816735  0.27532592  0.58828481    -0.58600
C186        C  0.99580016  0.31321206  0.60545764     0.75100
C187        C  0.96924789  0.27769372  0.59079877     0.77500
Cd188      Cd  0.99633610  0.29147945  0.58310071     1.37500
O189        O  0.99292819  0.30694374  0.56115642    -0.57500
O190        O  0.97202395  0.29110697  0.59266741    -0.56300
C191        C  0.02685433  0.28405759  0.58175855     0.77500
O192        O  0.97955150  0.26976740  0.58581246    -0.58600
O193        O  0.98947865  0.28367739  0.55887646    -0.57100
O194        O  0.99817245  0.29987479  0.60836998    -0.57100
O195        O  0.02120440  0.29541592  0.57640595    -0.56300
O196        O  0.99411049  0.40303675  0.68014376    -0.57500
C197        C  0.00292995  0.44158947  0.70184770     0.75200
O198        O  0.97765932  0.40389429  0.72323042    -0.58600
C199        C  0.99294882  0.38960547  0.68346654     0.75100
C200        C  0.02752314  0.40428056  0.71109739     0.77500
Cd201      Cd  0.99739894  0.41132040  0.70524496     1.37500
O202        O  0.99849274  0.43398077  0.69104081    -0.57500
O203        O  0.02209991  0.40574860  0.69846838    -0.56300
C204        C  0.96829504  0.41263431  0.71779972     0.77500
O205        O  0.01870306  0.40554522  0.72187534    -0.58600
O206        O  0.00480053  0.43499086  0.71388882    -0.57100
O207        O  0.99315457  0.38644548  0.69696506    -0.57100
O208        O  0.97275116  0.42077793  0.70756823    -0.56300
O209        O  0.17666724  0.26356997  0.58996059    -0.57500
C210        C  0.13607797  0.28400180  0.58215932     0.75200
O211        O  0.17267120  0.31347767  0.59278467    -0.58600
C212        C  0.18998028  0.26608969  0.58679811     0.75100
C213        C  0.17040186  0.29150173  0.55135775     0.77500
Cd214      Cd  0.16745322  0.28835470  0.58284406     1.37500
O215        O  0.14417857  0.27495147  0.58881857    -0.57500
O216        O  0.16610012  0.27993822  0.55761974    -0.56300
C217        C  0.17046553  0.31036186  0.60613212     0.77500
O218        O  0.17367463  0.30216752  0.55972242    -0.58600
O219        O  0.14251066  0.29481759  0.57641865    -0.57100
O220        O  0.19287367  0.27895702  0.58253948    -0.57100
O221        O  0.16744153  0.29710321  0.60872392    -0.56300
O222        O  0.26505904  0.17481191  0.58824079    -0.57500
C223        C  0.28308502  0.13589546  0.58898534     0.75200
O224        O  0.30102366  0.17417460  0.55689507    -0.58600
C225        C  0.26716884  0.18791435  0.58432389     0.75100
C226        C  0.31356719  0.17206917  0.60178448     0.77500
Cd227      Cd  0.29006966  0.16575261  0.58073842     1.37500
O228        O  0.27404839  0.14355209  0.58182672    -0.57500
O229        O  0.30008045  0.17194759  0.60505336    -0.56300
C230        C  0.29613219  0.16370320  0.54917741     0.77500
O231        O  0.31651153  0.16988480  0.58836989    -0.58600
O232        O  0.29494101  0.14217990  0.59255192    -0.57100
O233        O  0.27970311  0.19066605  0.57908045    -0.57100
O234        O  0.28912842  0.15397561  0.55607522    -0.56300
O235        O  0.40008529  0.17853349  0.73148934    -0.57500
C236        C  0.40634287  0.13840347  0.70961356     0.75200
O237        O  0.40202959  0.17442463  0.68063169    -0.58600
C238        C  0.40296278  0.19193419  0.72928090     0.75100
C239        C  0.44053355  0.17352876  0.70570621     0.77500
Cd240      Cd  0.40879583  0.16997674  0.70694481     1.37500
O241        O  0.40105473  0.14642180  0.71966583    -0.57500
O242        O  0.43392264  0.16820577  0.71665372    -0.56300
C243        C  0.38828882  0.17444920  0.68265591     0.77500
O244        O  0.43247373  0.17739590  0.69510557    -0.58600
O245        O  0.41247193  0.14505676  0.69916406    -0.57100
O246        O  0.40776284  0.19509646  0.71666459    -0.57100
O247        O  0.38415911  0.17319421  0.69583750    -0.56300
O248        O  0.40647111  0.26412060  0.82206567    -0.57500
C249        C  0.41248671  0.28177423  0.86245184     0.75200
O250        O  0.43672209  0.30248916  0.82895652    -0.58600
C251        C  0.40592679  0.26770848  0.80868289     0.75100
C252        C  0.39178923  0.31272545  0.82925151     0.77500
Cd253      Cd  0.41296157  0.28885332  0.83138188     1.37500
O254        O  0.40304961  0.27638867  0.85380111    -0.57500
O255        O  0.38838305  0.29991120  0.83316581    -0.56300
C256        C  0.44425350  0.29136894  0.82541959     0.77500
O257        O  0.40512631  0.31467042  0.82581377    -0.58600
O258        O  0.42204701  0.28998607  0.85671067    -0.57100
O259        O  0.40790382  0.28114493  0.80593487    -0.57100
O260        O  0.43726430  0.27944394  0.82429808    -0.56300
O261        O  0.17792466  0.40258616  0.73141001    -0.57500
C262        C  0.13672313  0.40501737  0.71094170     0.75200
O263        O  0.17325513  0.43330750  0.69337747    -0.58600
C264        C  0.19094854  0.40667255  0.72872745     0.75100
C265        C  0.17178384  0.38704198  0.68533865     0.77500
Cd266      Cd  0.16775693  0.40984554  0.70709460     1.37500
O267        O  0.14513257  0.40566059  0.72199405    -0.57500
O268        O  0.16820723  0.38421638  0.69842715    -0.56300
C269        C  0.16714706  0.44134326  0.70294713     0.77500
O270        O  0.17447991  0.40037325  0.68251840    -0.58600
O271        O  0.14271501  0.40662400  0.69855872    -0.57100
O272        O  0.19325201  0.41157562  0.71599282    -0.57100
O273        O  0.16147532  0.43473660  0.71369205    -0.56300
O274        O  0.27865466  0.40720626  0.85061161    -0.57500
C275        C  0.27035843  0.40766205  0.80480606     0.75200
O276        O  0.30476854  0.43680258  0.82078562    -0.58600
C277        C  0.28704115  0.41455618  0.85894325     0.75100
C278        C  0.31503627  0.39140236  0.82605422     0.77500
Cd279      Cd  0.29194782  0.41359860  0.82754837     1.37500
O280        O  0.26774929  0.40492779  0.81816736    -0.57500
O281        O  0.30178959  0.38841411  0.82890981    -0.56300
C282        C  0.29358894  0.44489050  0.82249146     0.77500
O283        O  0.31771410  0.40468004  0.82302511    -0.58600
O284        O  0.28319698  0.41212485  0.80191275    -0.57100
O285        O  0.29744532  0.42130718  0.85275732    -0.57100
O286        O  0.28190207  0.43848116  0.82636764    -0.56300
O287        O  0.31208279  0.99136101  0.59190174    -0.57500
C288        C  0.29076377  0.00229836  0.55509400     0.75200
O289        O  0.26946130  0.97833499  0.59589980    -0.58600
C290        C  0.30963888  0.99049938  0.60555252     0.75100
C291        C  0.28022820  0.02755273  0.59345717     0.77500
Cd292      Cd  0.28672839  0.99757264  0.58570233     1.37500
O293        O  0.30142588  0.99858258  0.56317803    -0.57500
O294        O  0.29304102  0.02237059  0.59285160    -0.56300
C295        C  0.27293334  0.96909862  0.58605714     0.77500
O296        O  0.26975294  0.01859261  0.59117930    -0.58600
O297        O  0.27846297  0.00404919  0.56132802    -0.57100
O298        O  0.29662027  0.99279669  0.60977641    -0.57100
O299        O  0.28115743  0.97371735  0.57595557    -0.56300
O300        O  0.43439783  0.99407480  0.68467108    -0.57500
C301        C  0.39050762  0.99394214  0.67754964     0.75200
O302        O  0.41090859  0.98105400  0.72129561    -0.58600
C303        C  0.44243299  0.99186902  0.69576777     0.75100
C304        C  0.40975887  0.02883937  0.70543938     0.77500
Cd305      Cd  0.41198577  0.99777670  0.69952630     1.37500
O306        O  0.40398547  0.99221796  0.67444744    -0.57500
O307        O  0.41525531  0.02326318  0.69401912    -0.56300
C308        C  0.40425571  0.97110618  0.71413157     0.77500
O309        O  0.40517835  0.01986786  0.71502720    -0.58600
O310        O  0.38744022  0.99809747  0.69045493    -0.57100
O311        O  0.43625976  0.99247933  0.70815592    -0.57100
O312        O  0.40036327  0.97422700  0.70129067    -0.56300
O313        O  0.99790367  0.67448982  0.59565685    -0.57500
C314        C  0.00416597  0.69674016  0.55760356     0.75200
O315        O  0.97765784  0.71619859  0.59714010    -0.58600
C316        C  0.99420504  0.67726356  0.60879643     0.75100
C317        C  0.02742392  0.71146565  0.59654530     0.77500
Cd318      Cd  0.99869177  0.70029444  0.58832621     1.37500
O319        O  0.00288252  0.68549618  0.56564458    -0.57500
O320        O  0.02310152  0.69854629  0.59887354    -0.56300
C321        C  0.96854895  0.71061617  0.58815711     0.77500
O322        O  0.01793356  0.72019157  0.59141003    -0.58600
O323        O  0.00335929  0.70903139  0.56398776    -0.57100
O324        O  0.99252997  0.69060568  0.61218935    -0.57100
O325        O  0.97366813  0.70129109  0.57929576    -0.56300
O326        O  0.99768280  0.58719215  0.68270822    -0.57500
C327        C  0.00500265  0.55007414  0.70367402     0.75200
O328        O  0.01898258  0.58447549  0.72740116    -0.58600
C329        C  0.99342611  0.60014468  0.68538522     0.75100
C330        C  0.96863720  0.57921767  0.71967009     0.77500
Cd331      Cd  0.99859993  0.58026060  0.70868056     1.37500
O332        O  0.00130094  0.55823251  0.69310389    -0.57500
O333        O  0.97415467  0.56996672  0.71099236    -0.56300
C334        C  0.02742816  0.59044315  0.71805525     0.77500
O335        O  0.97746353  0.58870088  0.72488066    -0.58600
O336        O  0.00614489  0.55611138  0.71613824    -0.57100
O337        O  0.99122192  0.60345355  0.69868524    -0.57100
O338        O  0.02198890  0.59249815  0.70553682    -0.56300
O339        O  0.41131185  0.72297163  0.84954553    -0.57500
C340        C  0.41245513  0.73142379  0.80544056     0.75200
O341        O  0.44120441  0.69814773  0.81910686    -0.58600
C342        C  0.40977401  0.71191426  0.85775506     0.75100
C343        C  0.39559787  0.68543981  0.82079443     0.77500
Cd344      Cd  0.41688799  0.70852040  0.82708771     1.37500
O345        O  0.40913224  0.73333245  0.81878257    -0.57500
O346        O  0.39204307  0.69871028  0.82251929    -0.56300
C347        C  0.44877852  0.70561124  0.82807990     0.77500
O348        O  0.40923631  0.68277182  0.82117053    -0.58600
O349        O  0.41746656  0.71895001  0.80214645    -0.57100
O350        O  0.41141116  0.69952923  0.85175673    -0.57100
O351        O  0.44162728  0.71392691  0.83652227    -0.56300
O352        O  0.40428141  0.82406459  0.73323087    -0.57500
C353        C  0.40496833  0.86330640  0.71764598     0.75200
O354        O  0.43409442  0.82134528  0.70778926    -0.58600
C355        C  0.40599244  0.81066265  0.72998738     0.75100
C356        C  0.38918899  0.82875214  0.68384504     0.77500
Cd357      Cd  0.40990960  0.83333467  0.70800192     1.37500
O358        O  0.41566218  0.85598714  0.72246402    -0.57500
O359        O  0.38582059  0.82729301  0.69719889    -0.56300
C360        C  0.44124108  0.83163538  0.70194184     0.77500
O361        O  0.40257597  0.83161546  0.68130425    -0.58600
O362        O  0.39610058  0.85641927  0.70952207    -0.57100
O363        O  0.40856917  0.80790358  0.71665017    -0.57100
O364        O  0.43373314  0.84241185  0.69763230    -0.56300
O365        O  0.27458315  0.85238452  0.59921903    -0.57500
C366        C  0.26312935  0.80698707  0.59187686     0.75200
O367        O  0.29925755  0.83041468  0.56299009    -0.58600
C368        C  0.27614173  0.86051206  0.58813940     0.75100
C369        C  0.30974391  0.82627005  0.60732500     0.77500
Cd370      Cd  0.28500652  0.82976988  0.58672658     1.37500
O371        O  0.25991351  0.82044408  0.59278241    -0.57500
O372        O  0.29647696  0.82666444  0.61131267    -0.56300
C373        C  0.28889916  0.82536480  0.55516201     0.77500
O374        O  0.31184801  0.82702734  0.59362926    -0.58600
O375        O  0.27647682  0.80414742  0.58931298    -0.57100
O376        O  0.28124995  0.85435092  0.57687264    -0.57100
O377        O  0.27737312  0.82180061  0.56200125    -0.56300
O378        O  0.26928164  0.59399501  0.81816466    -0.57500
C379        C  0.29085650  0.58599702  0.85773816     0.75200
O380        O  0.30700546  0.56237746  0.81929054    -0.58600
C381        C  0.27127270  0.59141532  0.80465184     0.75100
C382        C  0.31761365  0.60760293  0.82078326     0.77500
Cd383      Cd  0.29428146  0.58596495  0.82597381     1.37500
O384        O  0.28165588  0.59272323  0.84986848    -0.57500
O385        O  0.30462852  0.61108410  0.82418825    -0.56300
C386        C  0.29576125  0.55441813  0.82134706     0.77500
O387        O  0.31994418  0.59401445  0.81932608    -0.58600
O388        O  0.30133555  0.58002138  0.85094391    -0.57100
O389        O  0.28400202  0.58722645  0.80106516    -0.57100
O390        O  0.28427235  0.56104621  0.82529859    -0.56300
O391        O  0.17386384  0.72896981  0.59095017    -0.57500
C392        C  0.13602341  0.71049212  0.59113199     0.75200
O393        O  0.17858761  0.69312253  0.56248971    -0.58600
C394        C  0.18746776  0.72702363  0.58903878     0.75100
C395        C  0.17179430  0.68046055  0.60759578     0.77500
Cd396      Cd  0.16648803  0.70290873  0.58543419     1.37500
O397        O  0.14338398  0.71716592  0.58144103    -0.57500
O398        O  0.17300331  0.69398524  0.61034566    -0.56300
C399        C  0.16721254  0.69356829  0.55457707     0.77500
O400        O  0.16877190  0.67718957  0.59443330    -0.58600
O401        O  0.14292426  0.70100707  0.59841910    -0.57100
O402        O  0.19119080  0.71418999  0.58548233    -0.57100
O403        O  0.15561490  0.69742999  0.56106732    -0.56300
O404        O  0.17704637  0.58986873  0.73363071    -0.57500
C405        C  0.13602065  0.58941960  0.71592691     0.75200
O406        O  0.17075384  0.59063303  0.68369856    -0.58600
C407        C  0.19028452  0.58718945  0.73046836     0.75100
C408        C  0.16569539  0.55105724  0.70468325     0.77500
Cd409      Cd  0.16655236  0.58269937  0.70946014     1.37500
O410        O  0.14460909  0.58527587  0.72595282    -0.57500
O411        O  0.16168543  0.55729700  0.71636856    -0.56300
C412        C  0.17143928  0.60422641  0.68652662     0.77500
O413        O  0.17020922  0.55945999  0.69462937    -0.58600
O414        O  0.14158524  0.59054474  0.70331138    -0.57100
O415        O  0.19264150  0.58288505  0.71748598    -0.57100
O416        O  0.17061584  0.60772912  0.69994378    -0.56300
O417        O  0.55633459  0.31143409  0.00389768    -0.57500
C418        C  0.59982902  0.32058843  0.99432901     0.75200
O419        O  0.58497360  0.27837325  0.01871159    -0.58600
C420        C  0.54884291  0.30024182  0.00738751     0.75100
C421        C  0.57791165  0.28659002  0.97007554     0.77500
Cd422      Cd  0.57923059  0.29751953  0.99972290     1.37500
O423        O  0.58689804  0.32341764  0.99866515    -0.57500
O424        O  0.57016700  0.29692724  0.97502502    -0.56300
C425        C  0.58966149  0.28785054  0.02781861     0.77500
O426        O  0.58613699  0.28017714  0.97925992    -0.58600
O427        O  0.60289551  0.30722580  0.99228697    -0.57100
O428        O  0.55554000  0.28813723  0.00749808    -0.57100
O429        O  0.59033261  0.30088626  0.02333336    -0.56300
O430        O  0.67862309  0.40769565  0.99764552    -0.57500
C431        C  0.70152069  0.44379574  0.00608912     0.75200
O432        O  0.72370680  0.40859615  0.01931195    -0.58600
C433        C  0.68043993  0.39445127  0.99385986     0.75100
C434        C  0.71716013  0.41443471  0.96968006     0.77500
Cd435      Cd  0.70498123  0.41343093  0.99920055     1.37500
O436        O  0.69056805  0.43604921  0.00232212    -0.57500
O437        O  0.70861943  0.42389468  0.97502817    -0.56300
C438        C  0.71393281  0.40434519  0.02829832     0.77500
O439        O  0.72131306  0.40444773  0.97838874    -0.58600
O440        O  0.71376098  0.43734510  0.00681631    -0.57100
O441        O  0.69356374  0.39024576  0.99220158    -0.57100
O442        O  0.70110308  0.40319442  0.02326043    -0.56300
O443        O  0.59278243  0.26567149  0.17639606    -0.57500
C444        C  0.59074339  0.28455908  0.13623545     0.75200
O445        O  0.56088146  0.30193690  0.17572036    -0.58600
C446        C  0.58769811  0.26750027  0.18918574     0.75100
C447        C  0.60575137  0.31305160  0.17318014     0.77500
Cd448      Cd  0.58429385  0.29005423  0.16693665     1.37500
O449        O  0.58559484  0.27444139  0.14420757    -0.57500
O450        O  0.60903400  0.29960419  0.17304475    -0.56300
C451        C  0.55279297  0.29565641  0.16631964     0.77500
O452        O  0.59233131  0.31596258  0.17108080    -0.58600
O453        O  0.59322626  0.29663020  0.14259070    -0.57100
O454        O  0.58134004  0.27954933  0.19150193    -0.57100
O455        O  0.55934898  0.28761102  0.15715860    -0.56300
O456        O  0.59456256  0.17905743  0.26637077    -0.57500
C457        C  0.59106463  0.13942775  0.28680363     0.75200
O458        O  0.59363363  0.17504739  0.31643076    -0.58600
C459        C  0.59056151  0.19216372  0.26845728     0.75100
C460        C  0.55393077  0.16981655  0.29381821     0.77500
Cd461      Cd  0.58574840  0.17022218  0.29068846     1.37500
O462        O  0.58873613  0.14747072  0.27577588    -0.57500
O463        O  0.56089515  0.16186370  0.28489440    -0.56300
C464        C  0.60723758  0.17589508  0.31358530     0.77500
O465        O  0.56168072  0.17812128  0.30186985    -0.58600
O466        O  0.59133313  0.14575647  0.29913642    -0.57100
O467        O  0.58495075  0.19497921  0.28081861    -0.57100
O468        O  0.61072007  0.17487346  0.30019314    -0.56300
O469        O  0.72166081  0.41207361  0.14572558    -0.57500
C470        C  0.72873694  0.40970958  0.19105930     0.75200
O471        O  0.69244803  0.43633519  0.17588288    -0.58600
C472        C  0.71149750  0.40759286  0.13737109     0.75100
C473        C  0.68354223  0.39110017  0.17450927     0.77500
Cd474      Cd  0.70613643  0.41320078  0.16850851     1.37500
O475        O  0.73077044  0.40514785  0.17810080    -0.57500
O476        O  0.69696767  0.38788337  0.17308854    -0.56300
C477        C  0.70034816  0.44481087  0.16823296     0.77500
O478        O  0.68054513  0.40462374  0.17381932    -0.58600
O479        O  0.71638265  0.41544975  0.19351250    -0.57100
O480        O  0.69921908  0.40538649  0.14343819    -0.57100
O481        O  0.71026906  0.43865168  0.16080377    -0.56300
O482        O  0.81808756  0.40305172  0.26831314    -0.57500
C483        C  0.85863943  0.40386924  0.28640323     0.75200
O484        O  0.82303710  0.43538997  0.30584291    -0.58600
C485        C  0.80565476  0.40900098  0.26975259     0.75100
C486        C  0.82010215  0.39137342  0.31546292     0.77500
Cd487      Cd  0.82821014  0.41174015  0.29234346     1.37500
O488        O  0.85070142  0.40981510  0.27677279    -0.57500
O489        O  0.82043230  0.38778479  0.30205712    -0.56300
C490        C  0.83110178  0.44309260  0.29757245     0.77500
O491        O  0.82303829  0.40466054  0.31830808    -0.58600
O492        O  0.85240737  0.40109410  0.29846121    -0.57100
O493        O  0.80361338  0.41587838  0.28162098    -0.57100
O494        O  0.83778931  0.43623760  0.28758731    -0.56300
O495        O  0.73211467  0.17711797  0.40562875    -0.57500
C496        C  0.71267310  0.13600464  0.40609681     0.75200
O497        O  0.69571639  0.17341750  0.43668593    -0.58600
C498        C  0.72988054  0.18979383  0.41084710     0.75100
C499        C  0.68514073  0.17281860  0.39109242     0.77500
Cd500      Cd  0.70784285  0.16672254  0.41281565     1.37500
O501        O  0.72347889  0.14461917  0.40777387    -0.57500
O502        O  0.69864166  0.17256935  0.38782832    -0.56300
C503        C  0.70419963  0.16569331  0.44444387     0.77500
O504        O  0.68212749  0.17098303  0.40452722    -0.58600
O505        O  0.70009415  0.14165444  0.40730035    -0.57100
O506        O  0.71735682  0.19190049  0.41641730    -0.57100
O507        O  0.71356657  0.15822450  0.43752016    -0.56300
O508        O  0.85100817  0.27548709  0.41496618    -0.57500
C509        C  0.80739975  0.26809267  0.41158332     0.75200
O510        O  0.81926246  0.30175704  0.43633434    -0.58600
C511        C  0.85891983  0.28223212  0.40578756     0.75100
C512        C  0.82160133  0.31436561  0.39229228     0.77500
Cd513      Cd  0.82926706  0.29146196  0.41298469     1.37500
O514        O  0.82002311  0.26646086  0.40605033    -0.57500
O515        O  0.81973322  0.30092512  0.38947535    -0.56300
C516        C  0.83079870  0.30000970  0.44378772     0.77500
O517        O  0.82684613  0.31733383  0.40480053    -0.58600
O518        O  0.80502195  0.28034160  0.41755540    -0.57100
O519        O  0.85291702  0.29289146  0.39934827    -0.57100
O520        O  0.84179569  0.29531233  0.43681282    -0.56300
O521        O  0.56385717  0.69396613  0.99731104    -0.57500
C522        C  0.60535926  0.68489197  0.00422862     0.75200
O523        O  0.58954064  0.72820639  0.98126271    -0.58600
C524        C  0.55576776  0.70484642  0.99447181     0.75100
C525        C  0.58575307  0.71849997  0.03165867     0.77500
Cd526      Cd  0.58596062  0.70896382  0.00130369     1.37500
O527        O  0.59175044  0.68277812  0.00218084    -0.57500
O528        O  0.57693615  0.70941763  0.02604058    -0.56300
C529        C  0.59518718  0.71893462  0.97251107     0.77500
O530        O  0.59470919  0.72457460  0.02286631    -0.58600
O531        O  0.60961780  0.69805829  0.00544086    -0.57100
O532        O  0.56178679  0.71735732  0.99479770    -0.57100
O533        O  0.59733419  0.70634561  0.97767951    -0.56300
O534        O  0.68802010  0.55979361  0.00522662    -0.57500
C535        C  0.67894295  0.60461322  0.99981064     0.75200
O536        O  0.69511140  0.58820289  0.02739030    -0.58600
C537        C  0.69951433  0.55246692  0.00788546     0.75100
C538        C  0.71136851  0.58246394  0.97296269     0.77500
Cd539      Cd  0.70107888  0.58307376  0.00266125     1.37500
O540        O  0.67554672  0.59111974  0.99995139    -0.57500
O541        O  0.70028580  0.57568327  0.97778326    -0.56300
C542        C  0.70785437  0.59069933  0.03223554     0.77500
O543        O  0.71868542  0.58993181  0.98225796    -0.58600
O544        O  0.69248952  0.60776188  0.00015617    -0.57100
O545        O  0.71153214  0.55947541  0.00833235    -0.57100
O546        O  0.71836262  0.59008444  0.02301893    -0.56300
O547        O  0.58377109  0.99816313  0.32544234    -0.57500
C548        C  0.54667293  0.00826983  0.30288187     0.75200
O549        O  0.58456890  0.02174066  0.28179434    -0.58600
C550        C  0.59684003  0.99438248  0.32253436     0.75100
C551        C  0.57677127  0.97379874  0.28638990     0.77500
Cd552      Cd  0.57716370  0.00228638  0.29968959     1.37500
O553        O  0.55415207  0.00389748  0.31373564    -0.57500
O554        O  0.56627671  0.97882473  0.29388353    -0.56300
C555        C  0.58679823  0.03116257  0.29183814     0.77500
O556        O  0.58702905  0.98269839  0.28329493    -0.58600
O557        O  0.55348152  0.01007017  0.29091408    -0.57100
O558        O  0.60053288  0.99430040  0.30918091    -0.57100
O559        O  0.58517862  0.02685722  0.30487296    -0.56300
O560        O  0.67526934  0.99669642  0.40858165    -0.57500
C561        C  0.69831489  0.00578039  0.44428223     0.75200
O562        O  0.71895259  0.97807774  0.40603567    -0.58600
C563        C  0.67698600  0.99227453  0.39550243     0.75100
C564        C  0.71050492  0.02718933  0.40452042     0.77500
Cd565      Cd  0.70158290  0.99827419  0.41409797     1.37500
O566        O  0.68741952  0.00104123  0.43702392    -0.57500
O567        O  0.69786036  0.02181734  0.40270726    -0.56300
C568        C  0.71435901  0.96920939  0.41572941     0.77500
O569        O  0.72012646  0.01853836  0.40954537    -0.58600
O570        O  0.71025745  0.00727607  0.43737556    -0.57100
O571        O  0.69007562  0.99042035  0.39121875    -0.57100
O572        O  0.70498345  0.97420328  0.42459884    -0.56300
O573        O  0.71978163  0.85222489  0.40407352    -0.57500
C574        C  0.72927029  0.80598703  0.40713263     0.75200
O575        O  0.69291824  0.82566886  0.43654200    -0.58600
C576        C  0.71492015  0.86037190  0.41421949     0.75100
C577        C  0.68367470  0.82605883  0.39219322     0.77500
Cd578      Cd  0.70775025  0.82897112  0.41351888     1.37500
O579        O  0.73257940  0.81942210  0.40605553    -0.57500
O580        O  0.69652612  0.83008346  0.38886483    -0.56300
C581        C  0.70398595  0.82459111  0.44488448     0.77500
O582        O  0.68168669  0.82298483  0.40556726    -0.58600
O583        O  0.71609991  0.80328999  0.41059363    -0.57100
O584        O  0.70703305  0.85406079  0.42366099    -0.57100
O585        O  0.71637304  0.82493878  0.43862601    -0.56300
O586        O  0.81727726  0.72798092  0.40720502    -0.57500
C587        C  0.85739605  0.70629344  0.41518257     0.75200
O588        O  0.81861176  0.69078989  0.43896367    -0.58600
C589        C  0.80361307  0.72548371  0.40816543     0.75100
C590        C  0.82004920  0.68029287  0.39416680     0.77500
Cd591      Cd  0.82529709  0.70338048  0.41546323     1.37500
O592        O  0.84942337  0.71625111  0.40980569    -0.57500
O593        O  0.82297018  0.69333983  0.39057244    -0.56300
C594        C  0.81976147  0.70232672  0.44664315     0.77500
O595        O  0.81921970  0.67778893  0.40778144    -0.58600
O596        O  0.85057318  0.69542761  0.42037519    -0.57100
O597        O  0.80000066  0.71260458  0.41180729    -0.57100
O598        O  0.82293748  0.71389784  0.43979646    -0.56300
O599        O  0.59123752  0.82416109  0.26833633    -0.57500
C600        C  0.58215805  0.86508061  0.28697499     0.75200
O601        O  0.55903790  0.82805752  0.30569973    -0.58600
C602        C  0.58925336  0.81079914  0.27146919     0.75100
C603        C  0.60396693  0.83117113  0.31637247     0.77500
Cd604      Cd  0.58265220  0.83378346  0.29265282     1.37500
O605        O  0.59172664  0.85701659  0.28096524    -0.57500
O606        O  0.60705292  0.83595071  0.30376737    -0.56300
C607        C  0.55126303  0.82903028  0.29420539     0.77500
O608        O  0.59069824  0.82747842  0.31835565    -0.58600
O609        O  0.57314261  0.85871164  0.29533063    -0.57100
O610        O  0.58501756  0.80821519  0.28439625    -0.57100
O611        O  0.55808162  0.83191011  0.28248050    -0.56300
O612        O  0.82097245  0.59260581  0.26889489    -0.57500
C613        C  0.86351017  0.59056833  0.28789110     0.75200
O614        O  0.82528985  0.59104964  0.31756798    -0.58600
C615        C  0.80831871  0.58733227  0.27130069     0.75100
C616        C  0.83401309  0.55254829  0.29694902     0.77500
Cd617      Cd  0.83236737  0.58398069  0.29229836     1.37500
O618        O  0.85527223  0.58796059  0.27700300    -0.57500
O619        O  0.83813469  0.55871594  0.28527370    -0.56300
C620        C  0.82493994  0.60470206  0.31522337     0.77500
O621        O  0.82903396  0.56092030  0.30684682    -0.58600
O622        O  0.85728254  0.59050357  0.30025827    -0.57100
O623        O  0.80674252  0.58085156  0.28341095    -0.57100
O624        O  0.82765340  0.60871154  0.30223291    -0.56300
O625        O  0.59633221  0.72167528  0.14961715    -0.57500
C626        C  0.58914951  0.73209585  0.19477553     0.75200
O627        O  0.56228092  0.69621184  0.17652268    -0.58600
C628        C  0.58793909  0.71468161  0.14100737     0.75100
C629        C  0.60687384  0.68642961  0.17814220     0.77500
Cd630      Cd  0.58586447  0.70977028  0.17235061     1.37500
O631        O  0.59318178  0.73434414  0.18168287    -0.57500
O632        O  0.61074051  0.69958282  0.17621451    -0.56300
C633        C  0.55428258  0.70730278  0.17417702     0.77500
O634        O  0.59319486  0.68400584  0.17786141    -0.58600
O635        O  0.58412466  0.71946632  0.19749109    -0.57100
O636        O  0.57934348  0.70560171  0.14692041    -0.57100
O637        O  0.56095769  0.71912385  0.17136489    -0.56300
O638        O  0.73008413  0.59348257  0.18273143    -0.57500
C639        C  0.70950816  0.59224725  0.14151009     0.75200
O640        O  0.69210168  0.56249138  0.17937032    -0.58600
C641        C  0.72829216  0.58812216  0.19539836     0.75100
C642        C  0.68274945  0.60744382  0.17961926     0.77500
Cd643      Cd  0.70537669  0.58595509  0.17271652     1.37500
O644        O  0.69726292  0.59287719  0.14797462    -0.57500
O645        O  0.69615641  0.61085057  0.17825345    -0.56300
C646        C  0.69961075  0.55454855  0.17080135     0.77500
O647        O  0.67977556  0.59392130  0.17856369    -0.58600
O648        O  0.72042585  0.58934527  0.14957497    -0.57100
O649        O  0.71594406  0.58220980  0.19765987    -0.57100
O650        O  0.70917371  0.56117365  0.16328969    -0.56300
O651        O  0.32663870  0.58649522  0.99794902    -0.57500
C652        C  0.30387201  0.54870820  0.00416810     0.75200
O653        O  0.28258560  0.58618783  0.01763674    -0.58600
C654        C  0.32363401  0.59988949  0.99599272     0.75100
C655        C  0.29227198  0.57876711  0.96727352     0.77500
Cd656      Cd  0.30101329  0.57892546  0.99793027     1.37500
O657        O  0.31497904  0.55623779  0.00051950    -0.57500
O658        O  0.30365052  0.57280349  0.97236267    -0.56300
C659        C  0.29261184  0.58786253  0.02723560     0.77500
O660        O  0.28385449  0.58482778  0.97663334    -0.58600
O661        O  0.29164214  0.55523195  0.00463093    -0.57100
O662        O  0.31025131  0.60317886  0.99426959    -0.57100
O663        O  0.30561208  0.58588596  0.02290157    -0.56300
O664        O  0.41215631  0.67682206  0.99778291    -0.57500
C665        C  0.44764284  0.70065354  0.98762977     0.75200
O666        O  0.41108569  0.72088278  0.97478623    -0.58600
C667        C  0.39847756  0.67905089  0.99903485     0.75100
C668        C  0.41659405  0.71431344  0.02408744     0.77500
Cd669      Cd  0.41742064  0.70296461  0.99458153     1.37500
O670        O  0.44022199  0.68939891  0.99102920    -0.57500
O671        O  0.42625254  0.70566388  0.01930660    -0.56300
C672        C  0.40712207  0.71079638  0.96597178     0.77500
O673        O  0.40746177  0.71907634  0.01476691    -0.58600
O674        O  0.44085770  0.71271861  0.98714980    -0.57100
O675        O  0.39418194  0.69219999  0.99886200    -0.57100
O676        O  0.40727909  0.69790351  0.97086254    -0.56300
O677        O  0.99846510  0.55218548  0.31302916    -0.57500
C678        C  0.00742175  0.59403272  0.32308073     0.75200
O679        O  0.02036855  0.58279049  0.28075715    -0.58600
C680        C  0.99284562  0.54491590  0.30258326     0.75100
C681        C  0.97232444  0.58647063  0.29108149     0.77500
Cd682      Cd  0.00087803  0.57501068  0.29899592     1.37500
O683        O  0.00322491  0.58097923  0.32532032    -0.57500
O684        O  0.97765738  0.58687999  0.30383356    -0.56300
C685        C  0.02978826  0.57390459  0.28576219     0.77500
O686        O  0.98070993  0.58153183  0.28109857    -0.58600
O687        O  0.00903866  0.59781684  0.30984513    -0.57100
O688        O  0.99087410  0.55167865  0.29067569    -0.57100
O689        O  0.02532267  0.56532280  0.29562017    -0.56300
O690        O  0.00313728  0.67110517  0.41230104    -0.57500
C691        C  0.00153388  0.69505232  0.44840637     0.75200
O692        O  0.02195832  0.70983877  0.42539969    -0.58600
C693        C  0.00468675  0.67277929  0.39860280     0.75100
C694        C  0.96782117  0.70410533  0.41435540     0.77500
Cd695      Cd  0.99925772  0.69771310  0.41729089     1.37500
O696        O  0.00341597  0.68386570  0.44032037    -0.57500
O697        O  0.97344829  0.69186842  0.41722362    -0.56300
C698        C  0.02700126  0.71335252  0.41303275     0.77500
O699        O  0.97691733  0.71439785  0.41190890    -0.58600
O700        O  0.99827643  0.70686541  0.44198331    -0.57100
O701        O  0.00383840  0.68575497  0.39390109    -0.57100
O702        O  0.01839773  0.71136962  0.40228333    -0.56300
O703        O  0.26670365  0.59098648  0.17705193    -0.57500
C704        C  0.28744236  0.58826049  0.13611910     0.75200
O705        O  0.31683256  0.59138502  0.17395603    -0.58600
C706        C  0.26886981  0.58689835  0.19011668     0.75100
C707        C  0.29554338  0.55068551  0.16566204     0.77500
Cd708      Cd  0.29126078  0.58252240  0.16720375     1.37500
O709        O  0.27634655  0.58549293  0.14406287    -0.57500
O710        O  0.28625787  0.55753343  0.15809157    -0.56300
C711        C  0.31414419  0.60484478  0.17188636     0.77500
O712        O  0.30345882  0.55853495  0.17401145    -0.58600
O713        O  0.29968335  0.58844740  0.14260732    -0.57100
O714        O  0.28123438  0.58117854  0.19252389    -0.57100
O715        O  0.30101038  0.60780621  0.16859180    -0.56300
O716        O  0.17885922  0.59093376  0.26676652    -0.57500
C717        C  0.13824984  0.58238693  0.28504941     0.75200
O718        O  0.17788009  0.55855004  0.30216704    -0.58600
C719        C  0.19219534  0.58793530  0.26921571     0.75100
C720        C  0.17241305  0.60334954  0.31516551     0.77500
Cd721      Cd  0.16945331  0.58231307  0.29094813     1.37500
O722        O  0.14407031  0.57608254  0.29585537    -0.57500
O723        O  0.17250621  0.60712582  0.30185230    -0.56300
C724        C  0.17256520  0.55068145  0.29195834     0.77500
O725        O  0.17131383  0.58973049  0.31747535    -0.58600
O726        O  0.14679294  0.58977191  0.27694470    -0.57100
O727        O  0.19501688  0.58297019  0.28182916    -0.57100
O728        O  0.16626573  0.55747520  0.28173183    -0.56300
O729        O  0.40596126  0.73228869  0.17427551    -0.57500
C730        C  0.41209584  0.71198959  0.13320690     0.75200
O731        O  0.43650137  0.69449491  0.17073481    -0.58600
C732        C  0.40687097  0.72914042  0.18776050     0.75100
C733        C  0.39137245  0.68384822  0.16911964     0.77500
Cd734      Cd  0.41287765  0.70740330  0.16495630     1.37500
O735        O  0.40338869  0.71883587  0.14159068    -0.57500
O736        O  0.38803203  0.69659416  0.16497640    -0.56300
C737        C  0.44441570  0.70589777  0.16959026     0.77500
O738        O  0.40487849  0.68175265  0.17162401    -0.58600
O739        O  0.42078296  0.70323942  0.13940893    -0.57100
O740        O  0.40986494  0.71595072  0.19060031    -0.57100
O741        O  0.43772707  0.71757514  0.16645690    -0.56300
O742        O  0.39930739  0.85119398  0.27699957    -0.57500
C743        C  0.40568373  0.80587134  0.26678990     0.75200
O744        O  0.43319324  0.82220628  0.30237793    -0.58600
C745        C  0.40912726  0.85995919  0.28148035     0.75100
C746        C  0.38884424  0.82626840  0.31271817     0.77500
Cd747      Cd  0.41021244  0.82882166  0.28870530     1.37500
O748        O  0.40407566  0.81930956  0.26387778    -0.57500
O749        O  0.38527544  0.82632533  0.29933719    -0.56300
C750        C  0.44153921  0.82465974  0.29150540     0.77500
O751        O  0.40249573  0.82697085  0.31525157    -0.58600
O752        O  0.40861059  0.80294396  0.28000453    -0.57100
O753        O  0.41912648  0.85440356  0.28920804    -0.57100
O754        O  0.43529384  0.82862555  0.27983163    -0.56300
O755        O  0.14324968  0.71753133  0.42203256    -0.57500
C756        C  0.18805807  0.72834120  0.41057662     0.75200
O757        O  0.17920410  0.69887282  0.43789799    -0.58600
C758        C  0.13590222  0.71512222  0.41053050     0.75100
C759        C  0.16939366  0.68091106  0.39343219     0.77500
Cd760      Cd  0.16604773  0.70505305  0.41443599     1.37500
O761        O  0.17463738  0.73120384  0.41260106    -0.57500
O762        O  0.17021049  0.69424040  0.38985691    -0.56300
C763        C  0.16774355  0.69580539  0.44511444     0.77500
O764        O  0.16725016  0.67848272  0.40691886    -0.58600
O765        O  0.19122149  0.71489587  0.41005728    -0.57100
O766        O  0.14280580  0.70904294  0.40014167    -0.57100
O767        O  0.15590751  0.69602648  0.43794122    -0.56300
O768        O  0.26271218  0.81993913  0.40651642    -0.57500
C769        C  0.28019186  0.85967978  0.41498005     0.75200
O770        O  0.30132298  0.82584290  0.43727427    -0.58600
C771        C  0.26561730  0.80643803  0.40766049     0.75100
C772        C  0.31117664  0.82609855  0.39144714     0.77500
Cd773      Cd  0.28754598  0.82874914  0.41361696     1.37500
O774        O  0.27429440  0.85145407  0.40545277    -0.57500
O775        O  0.29787927  0.82822553  0.38821144    -0.56300
C776        C  0.29002671  0.82357029  0.44509672     0.77500
O777        O  0.31378738  0.82480729  0.40501487    -0.58600
O778        O  0.28929580  0.85363306  0.42338128    -0.57100
O779        O  0.27879625  0.80332347  0.41070914    -0.57100
O780        O  0.27798487  0.82286269  0.43827975    -0.56300
O781        O  0.31673767  0.40390350  0.99905508    -0.57500
C782        C  0.29829206  0.44108476  0.00646225     0.75200
O783        O  0.27573383  0.40583535  0.97622575    -0.58600
C784        C  0.31396251  0.39083376  0.99520956     0.75100
C785        C  0.27905435  0.40246023  0.02623067     0.77500
Cd786      Cd  0.29132880  0.41182665  0.99850012     1.37500
O787        O  0.30829195  0.43242856  0.00226046    -0.57500
O788        O  0.29164566  0.39909206  0.02161267    -0.56300
C789        C  0.28233832  0.41512010  0.96821052     0.77500
O790        O  0.27096689  0.40943648  0.01734872    -0.58600
O791        O  0.28543589  0.43589006  0.00742790    -0.57100
O792        O  0.30067588  0.38767464  0.99256996    -0.57100
O793        O  0.29178494  0.42300308  0.97454690    -0.56300
O794        O  0.43245331  0.30666289  0.00267668    -0.57500
C795        C  0.39127983  0.31439236  0.99315431     0.75200
O796        O  0.40094150  0.27510361  0.97932813    -0.58600
C797        C  0.44041052  0.29643431  0.00759583     0.75100
C798        C  0.40042304  0.28207974  0.02874229     0.77500
Cd799      Cd  0.41052065  0.29084620  0.99999304     1.37500
O800        O  0.40455017  0.31685628  0.99654843    -0.57500
O801        O  0.39974773  0.29491794  0.02377103    -0.56300
C802        C  0.41207850  0.27728896  0.97127909     0.77500
O803        O  0.40485600  0.27230275  0.01986303    -0.58600
O804        O  0.38735125  0.30112244  0.99231801    -0.57100
O805        O  0.43435420  0.28403002  0.00905331    -0.57100
O806        O  0.42265163  0.28399481  0.97721747    -0.56300
O807        O  0.30508965  0.99960344  0.43863483    -0.57500
C808        C  0.31312931  0.99367001  0.39532656     0.75200
O809        O  0.27307122  0.97713711  0.40869642    -0.58600
C810        C  0.29462316  0.00458754  0.44632131     0.75100
C811        C  0.28064532  0.02654184  0.40642030     0.77500
Cd812      Cd  0.29018009  0.99797842  0.41606589     1.37500
O813        O  0.31598335  0.99696458  0.40853879    -0.57500
O814        O  0.29367030  0.02197584  0.40565467    -0.56300
C815        C  0.27850684  0.96836316  0.41798914     0.77500
O816        O  0.27112839  0.01747954  0.41111531    -0.58600
O817        O  0.29973901  0.99197859  0.39203075    -0.57100
O818        O  0.28267730  0.00705084  0.43973359    -0.57100
O819        O  0.28815974  0.97366193  0.42637804    -0.56300
O820        O  0.43071773  0.99701411  0.30785618    -0.57500
C821        C  0.38899536  0.99049894  0.31707196     0.75200
O822        O  0.40341930  0.01757718  0.27585539    -0.58600
C823        C  0.43833731  0.00326966  0.29805754     0.75100
C824        C  0.40874619  0.96834301  0.27858417     0.77500
Cd825      Cd  0.40817453  0.99667860  0.29320083     1.37500
O826        O  0.40243548  0.99336791  0.31922650    -0.57500
O827        O  0.41884987  0.97317805  0.28672825    -0.56300
C828        C  0.39993455  0.02639849  0.28608233     0.77500
O829        O  0.39843418  0.97720956  0.27577932    -0.58600
O830        O  0.38474372  0.98994965  0.30388103    -0.57100
O831        O  0.43189979  0.00630330  0.28617459    -0.57100
O832        O  0.39906490  0.02101224  0.29876609    -0.56300
O833        O  0.99551384  0.31307273  0.40800364    -0.57500
C834        C  0.98759683  0.29349032  0.44474290     0.75200
O835        O  0.97484927  0.26826104  0.41408795    -0.58600
C836        C  0.99979206  0.31058013  0.39499834     0.75100
C837        C  0.02489428  0.27667628  0.41749516     0.77500
Cd838      Cd  0.99509754  0.28709262  0.41504402     1.37500
O839        O  0.99201287  0.30357927  0.43630332    -0.57500
O840        O  0.01903262  0.28610212  0.42570027    -0.56300
C841        C  0.96704319  0.27558114  0.40527699     0.77500
O842        O  0.01641017  0.27033247  0.40841168    -0.58600
O843        O  0.98610440  0.28087916  0.43914643    -0.57100
O844        O  0.00200802  0.29732391  0.39155923    -0.57100
O845        O  0.97297259  0.28687911  0.39997008    -0.56300
O846        O  0.99272618  0.42878371  0.31058128    -0.57500
C847        C  0.00132342  0.38764677  0.31827565     0.75200
O848        O  0.97593022  0.40362980  0.27534005    -0.58600
C849        C  0.98810543  0.43701063  0.30044388     0.75100
C850        C  0.02511394  0.40883785  0.28336988     0.77500
Cd851      Cd  0.99554063  0.40714484  0.29458249     1.37500
O852        O  0.99656790  0.40046081  0.32069046    -0.57500
O853        O  0.01915006  0.41823046  0.29157431    -0.56300
C854        C  0.96714838  0.39747115  0.28421915     0.77500
O855        O  0.01670935  0.39892402  0.27830396    -0.58600
O856        O  0.00364646  0.38420953  0.30502477    -0.57100
O857        O  0.98669445  0.43124373  0.28788890    -0.57100
O858        O  0.97223966  0.39455615  0.29671702    -0.56300
O859        O  0.40644023  0.26359944  0.17542289    -0.57500
C860        C  0.40381324  0.28349862  0.13724571     0.75200
O861        O  0.40306696  0.31532700  0.17120094    -0.58600
C862        C  0.40831295  0.26592132  0.18896000     0.75100
C863        C  0.44282252  0.29559171  0.16700669     0.77500
Cd864      Cd  0.41132578  0.28946569  0.16766915     1.37500
O865        O  0.40930805  0.27365028  0.14523244    -0.57500
O866        O  0.43616538  0.28794539  0.15758091    -0.56300
C867        C  0.38977101  0.31234248  0.17403476     0.77500
O868        O  0.43482914  0.30134607  0.17678300    -0.58600
O869        O  0.40142301  0.29565007  0.14345558    -0.57100
O870        O  0.41115387  0.27900502  0.19254417    -0.57100
O871        O  0.38661053  0.29884106  0.17464481    -0.56300
O872        O  0.40593229  0.17437035  0.26335788    -0.57500
C873        C  0.40602752  0.13535342  0.28510357     0.75200
O874        O  0.43581105  0.17468840  0.30105247    -0.58600
C875        C  0.40796566  0.18787629  0.26577927     0.75100
C876        C  0.39135703  0.17332119  0.31164153     0.77500
Cd877      Cd  0.41247251  0.16635940  0.28878608     1.37500
O878        O  0.40970537  0.14316869  0.27427365    -0.57500
O879        O  0.38787168  0.17227684  0.29824346    -0.56300
C880        C  0.44405322  0.16679163  0.29316348     0.77500
O881        O  0.40484036  0.17162414  0.31456527    -0.58600
O882        O  0.40501363  0.14192755  0.29726756    -0.57100
O883        O  0.41157398  0.19127697  0.27871960    -0.57100
O884        O  0.43765145  0.15879915  0.28384587    -0.56300
O885        O  0.26217775  0.40109731  0.17391715    -0.57500
C886        C  0.27854248  0.40230182  0.13436173     0.75200
O887        O  0.29908822  0.43264941  0.17343303    -0.58600
C888        C  0.26374848  0.40655396  0.18657646     0.75100
C889        C  0.31089215  0.38875648  0.17055429     0.77500
Cd890      Cd  0.28684733  0.40931289  0.16450477     1.37500
O891        O  0.27170308  0.41178247  0.14180050    -0.57500
O892        O  0.29753797  0.38563770  0.17278535    -0.56300
C893        C  0.29351768  0.44071316  0.16366610     0.77500
O894        O  0.31336161  0.40161625  0.16595909    -0.58600
O895        O  0.28870313  0.39569418  0.14101020    -0.57100
O896        O  0.27584493  0.41290301  0.18894044    -0.57100
O897        O  0.28590213  0.43414393  0.15413404    -0.56300
O898        O  0.17373899  0.40375914  0.26303619    -0.57500
C899        C  0.13470734  0.40756168  0.28534506     0.75200
O900        O  0.17082009  0.40226423  0.31467024    -0.58600
C901        C  0.18735441  0.40488672  0.26556919     0.75100
C902        C  0.17025274  0.44108434  0.29017335     0.77500
Cd903      Cd  0.16610014  0.40975240  0.28857052     1.37500
O904        O  0.14299072  0.39997174  0.27718194    -0.57500
O905        O  0.16429566  0.43462445  0.27944057    -0.56300
C906        C  0.17012680  0.38865982  0.31198483     0.77500
O907        O  0.17446606  0.43299294  0.30061095    -0.58600
O908        O  0.14103359  0.41577606  0.29456153    -0.57100
O909        O  0.19094628  0.40731255  0.27874950    -0.57100
O910        O  0.16833444  0.38514436  0.29869248    -0.56300
O911        O  0.27202245  0.14332055  0.40812402    -0.57500
C912        C  0.26575101  0.18747229  0.40522000     0.75200
O913        O  0.29869621  0.17494904  0.43196242    -0.58600
C914        C  0.28115664  0.13488892  0.40193651     0.75100
C915        C  0.31217985  0.17172066  0.38748138     0.77500
Cd916      Cd  0.28859026  0.16523201  0.40824604     1.37500
O917        O  0.26385368  0.17456116  0.40048766    -0.57500
O918        O  0.29882321  0.17130207  0.38374429    -0.56300
C919        C  0.29558269  0.16375608  0.43947988     0.77500
O920        O  0.31471303  0.16948447  0.40092383    -0.58600
O921        O  0.27801536  0.18998849  0.41115218    -0.57100
O922        O  0.29315205  0.14070030  0.39803708    -0.57100
O923        O  0.28987079  0.15324244  0.43249930    -0.56300
O924        O  0.17458425  0.26218705  0.40339868    -0.57500
C925        C  0.13416001  0.28258571  0.41110438     0.75200
O926        O  0.17230171  0.30163886  0.43337757    -0.58600
C927        C  0.18811808  0.26505906  0.40487401     0.75100
C928        C  0.16983836  0.31013698  0.38854904     0.77500
Cd929      Cd  0.16588428  0.28729059  0.41055259     1.37500
O930        O  0.14240218  0.27398666  0.40397086    -0.57500
O931        O  0.16610544  0.29718062  0.38527434    -0.56300
C932        C  0.17148629  0.29061898  0.44173921     0.77500
O933        O  0.17211415  0.31257184  0.40201887    -0.58600
O934        O  0.14054090  0.29308859  0.41753261    -0.57100
O935        O  0.19121914  0.27816877  0.40818319    -0.57100
O936        O  0.16829713  0.27858908  0.43561552    -0.56300
C937        C  0.23968025  0.24985980  0.41125890    -0.17500
C938        C  0.25045682  0.23901094  0.41152859    -0.19600
C939        C  0.24706306  0.22456793  0.40746015     0.21000
C940        C  0.23270134  0.22106857  0.40287193    -0.02600
C941        C  0.22177172  0.23202990  0.40268489    -0.05600
C942        C  0.22528586  0.24646348  0.40697595     0.21300
C943        C  0.20730209  0.22849717  0.39844024     0.19400
C944        C  0.20400025  0.21409468  0.39410830    -0.17100
C945        C  0.21484763  0.20326485  0.39419147    -0.19300
C946        C  0.22920821  0.20659202  0.39867324     0.20900
C947        C  0.24007253  0.19568768  0.39921102    -0.32300
C948        C  0.25436372  0.19903736  0.40404838     0.01600
C949        C  0.25774488  0.21355628  0.40806375    -0.23700
C950        C  0.21431254  0.25720023  0.40718368    -0.28300
C951        C  0.19974739  0.25374601  0.40334894     0.07300
C952        C  0.19636871  0.23935588  0.39884693    -0.26900
H953        H  0.24257421  0.26089303  0.41456651     0.12000
H954        H  0.26144004  0.24190404  0.41502896     0.13100
H955        H  0.19297988  0.21116754  0.39076042     0.12200
H956        H  0.21195459  0.19223002  0.39089253     0.11500
H957        H  0.23733799  0.18455622  0.39609340     0.16900
H958        H  0.26871444  0.21630105  0.41174012     0.12800
H959        H  0.21706832  0.26820830  0.41070674     0.15600
H960        H  0.18520769  0.23655834  0.39585617     0.15400
C961        C  0.17787761  0.36206848  0.37435806    -0.17500
C962        C  0.17771701  0.37311926  0.36373635    -0.19600
C963        C  0.17453672  0.36979494  0.34903959     0.21000
C964        C  0.17163802  0.35512130  0.34504772    -0.02600
C965        C  0.17177272  0.34397811  0.35576631    -0.05600
C966        C  0.17482047  0.34746859  0.37051689     0.21300
C967        C  0.16868647  0.32936685  0.35172237     0.19400
C968        C  0.16567137  0.32598537  0.33703146    -0.17100
C969        C  0.16555445  0.33698227  0.32644755    -0.19300
C970        C  0.16847191  0.35156140  0.33034981     0.20900
C971        C  0.16820039  0.36260698  0.31977068    -0.32300
C972        C  0.17098511  0.37728921  0.32355804     0.01600
C973        C  0.17413212  0.38082536  0.33827253    -0.23700
C974        C  0.17451966  0.33634361  0.38116094    -0.28300
C975        C  0.17114100  0.32177398  0.37724588     0.07300
C976        C  0.16842557  0.31840513  0.36244233    -0.26900
H977        H  0.18027826  0.36497006  0.38561827     0.12000
H978        H  0.18001844  0.38428878  0.36703889     0.13100
H979        H  0.16329567  0.31482847  0.33373400     0.12200
H980        H  0.16311373  0.33408225  0.31519352     0.11500
H981        H  0.16566126  0.35973611  0.30852505     0.16900
H982        H  0.17624785  0.39210399  0.34133082     0.12800
H983        H  0.17665563  0.33907576  0.39252013     0.15600
H984        H  0.16585600  0.30724899  0.35926659     0.15400
C985        C  0.24883532  0.41287609  0.23811645    -0.17500
C986        C  0.23826613  0.41233532  0.24918018    -0.19600
C987        C  0.22382550  0.40810361  0.24597578     0.21000
C988        C  0.21998234  0.40429290  0.23149149    -0.02600
C989        C  0.23072317  0.40468300  0.22032076    -0.05600
C990        C  0.24517962  0.40908133  0.22367511     0.21300
C991        C  0.22699825  0.40075724  0.20582388     0.19400
C992        C  0.21250048  0.39657732  0.20264901    -0.17100
C993        C  0.20180252  0.39636665  0.21369525    -0.19300
C994        C  0.20541743  0.40021018  0.22816259     0.20900
C995        C  0.19475113  0.40018071  0.23933520    -0.32300
C996        C  0.19855569  0.40399652  0.25381305     0.01600
C997        C  0.21315581  0.40780667  0.25700703    -0.23700
C998        C  0.25576091  0.40965015  0.21255811    -0.28300
C999        C  0.25224947  0.40568140  0.19808366     0.07300
C1000       C  0.23782228  0.40116836  0.19479734    -0.26900
H1001       H  0.25989432  0.41626071  0.24086450     0.12000
H1002       H  0.24137329  0.41532303  0.26024599     0.13100
H1003       H  0.20940854  0.39354521  0.19159309     0.12200
H1004       H  0.19069068  0.39319403  0.21091501     0.11500
H1005       H  0.18351255  0.39728182  0.23675443     0.16900
H1006       H  0.21618961  0.41088361  0.26807616     0.12800
H1007       H  0.26682155  0.41311883  0.21522479     0.15600
H1008       H  0.23498420  0.39816881  0.18365959     0.15400
C1009       C  0.32843720  0.17989000  0.33639317    -0.17500
C1010       C  0.33953824  0.18023262  0.32581053    -0.19600
C1011       C  0.35428153  0.17864971  0.32986907     0.21000
C1012       C  0.35792093  0.17720644  0.34480155    -0.02600
C1013       C  0.34668593  0.17683368  0.35550739    -0.05600
C1014       C  0.33186737  0.17794812  0.35123712     0.21300
C1015       C  0.35025491  0.17492111  0.37040691     0.19400
C1016       C  0.36505436  0.17388984  0.37450300    -0.17100
C1017       C  0.37617952  0.17427765  0.36390487    -0.19300
C1018       C  0.37272895  0.17567800  0.34899101     0.20900
C1019       C  0.38373877  0.17507737  0.33816956    -0.32300
C1020       C  0.38010378  0.17583334  0.32319312     0.01600
C1021       C  0.36536619  0.17799640  0.31920617    -0.23700
C1022       C  0.32071897  0.17671267  0.36180455    -0.28300
C1023       C  0.32412391  0.17429773  0.37663796     0.07300
C1024       C  0.33896597  0.17369689  0.38087194    -0.26900
H1025       H  0.31712948  0.18086221  0.33292477     0.12000
H1026       H  0.33655895  0.18144638  0.31440007     0.13100
H1027       H  0.36802225  0.17251590  0.38589642     0.12200
H1028       H  0.38747964  0.17318010  0.36735696     0.11500
H1029       H  0.39505235  0.17347940  0.34138432     0.16900
H1030       H  0.36243108  0.17871319  0.30773403     0.12800
H1031       H  0.30935506  0.17728149  0.35840396     0.15600
H1032       H  0.34173777  0.17190669  0.39225981     0.15400
C1033       C  0.37470754  0.36444437  0.17164978    -0.17500
C1034       C  0.36369865  0.37508103  0.17090866    -0.19600
C1035       C  0.34887828  0.37120653  0.17260714     0.21000
C1036       C  0.34518456  0.35646431  0.17538965    -0.02600
C1037       C  0.35632012  0.34569147  0.17608404    -0.05600
C1038       C  0.37114027  0.34968685  0.17405421     0.21300
C1039       C  0.35258275  0.33089193  0.17846043     0.19400
C1040       C  0.33779475  0.32705385  0.18046900    -0.17100
C1041       C  0.32679965  0.33770601  0.17984825    -0.19300
C1042       C  0.33034895  0.35242390  0.17717390     0.20900
C1043       C  0.31930919  0.36309391  0.17598008    -0.32300
C1044       C  0.32281740  0.37779758  0.17283720     0.01600
C1045       C  0.33769910  0.38174951  0.17131289    -0.23700
C1046       C  0.38207301  0.33882958  0.17403931    -0.28300
C1047       C  0.37841283  0.32394930  0.17587462     0.07300
C1048       C  0.36362464  0.32014990  0.17838116    -0.26900
H1049       H  0.38602211  0.36774285  0.17010769     0.12000
H1050       H  0.36677827  0.38633985  0.16883012     0.13100
H1051       H  0.33470022  0.31576066  0.18233821     0.12200
H1052       H  0.31547536  0.33438787  0.18127376     0.11500
H1053       H  0.30792806  0.35986020  0.17716714     0.16900
H1054       H  0.34058193  0.39300363  0.16893247     0.12800
H1055       H  0.39339024  0.34193093  0.17212124     0.15600
H1056       H  0.36063014  0.30876394  0.17984296     0.15400
C1057       C  0.40756988  0.23979937  0.25140529    -0.17500
C1058       C  0.40785101  0.25066168  0.24069137    -0.19600
C1059       C  0.40734700  0.24690753  0.22579472     0.21000
C1060       C  0.40640329  0.23205527  0.22162571    -0.02600
C1061       C  0.40616112  0.22105340  0.23247308    -0.05600
C1062       C  0.40682878  0.22498287  0.24741417     0.21300
C1063       C  0.40544799  0.20615799  0.22838152     0.19400
C1064       C  0.40483911  0.20243935  0.21344911    -0.17100
C1065       C  0.40502832  0.21335316  0.20269280    -0.19300
C1066       C  0.40586023  0.22820556  0.20665030     0.20900
C1067       C  0.40628366  0.23927346  0.19595035    -0.32300
C1068       C  0.40737082  0.25412261  0.20007262     0.01600
C1069       C  0.40787603  0.25778065  0.21503237    -0.23700
C1070       C  0.40701270  0.21405502  0.25813011    -0.28300
C1071       C  0.40658241  0.19916560  0.25421098     0.07300
C1072       C  0.40560192  0.19529011  0.23928673    -0.26900
H1073       H  0.40806922  0.24299110  0.26283289     0.12000
H1074       H  0.40854322  0.26201985  0.24406542     0.13100
H1075       H  0.40429841  0.19107411  0.21007760     0.12200
H1076       H  0.40461010  0.21016493  0.19126237     0.11500
H1077       H  0.40595238  0.23632789  0.18444780     0.16900
H1078       H  0.40870214  0.26915587  0.21834117     0.12800
H1079       H  0.40771734  0.21717054  0.26957495     0.15600
H1080       H  0.40531325  0.18384566  0.23614951     0.15400
C1081       C  0.08767317  0.38690743  0.26636329    -0.17500
C1082       C  0.07228478  0.38727957  0.26575855    -0.19600
C1083       C  0.06440061  0.39798227  0.27353669     0.21000
C1084       C  0.07219667  0.40833073  0.28205947    -0.02600
C1085       C  0.08765071  0.40780006  0.28287209    -0.05600
C1086       C  0.09548486  0.39713011  0.27488590     0.21300
C1087       C  0.09524393  0.41799869  0.29170691     0.19400
C1088       C  0.08746792  0.42858980  0.29962300    -0.17100
C1089       C  0.07224617  0.42923501  0.29866832    -0.19300
C1090       C  0.06455651  0.41919826  0.28990449     0.20900
C1091       C  0.04930267  0.41971478  0.28919425    -0.32300
C1092       C  0.04126783  0.40920092  0.28123465     0.01600
C1093       C  0.04890341  0.39839170  0.27325442    -0.23700
C1094       C  0.11094087  0.39696181  0.27558254    -0.28300
C1095       C  0.11850777  0.40723002  0.28435130     0.07300
C1096       C  0.11050798  0.41756890  0.29244696    -0.26900
H1097       H  0.09346157  0.37858747  0.26019413     0.12000
H1098       H  0.06655174  0.37920182  0.25918411     0.13100
H1099       H  0.09317270  0.43645080  0.30648675     0.12200
H1100       H  0.06647012  0.43755349  0.30485757     0.11500
H1101       H  0.04363729  0.42804252  0.29548555     0.16900
H1102       H  0.04283473  0.39014420  0.26720607     0.12800
H1103       H  0.11703441  0.38887706  0.26938628     0.15600
H1104       H  0.11619290  0.42551195  0.29924526     0.15400
C1105       C  0.08736884  0.29508013  0.43498303    -0.17500
C1106       C  0.07221307  0.29349854  0.43646612    -0.19600
C1107       C  0.06440217  0.28403695  0.42716602     0.21000
C1108       C  0.07191072  0.27591526  0.41639178    -0.02600
C1109       C  0.08729691  0.27736498  0.41502459    -0.05600
C1110       C  0.09499579  0.28709580  0.42429238     0.21300
C1111       C  0.09493708  0.26923888  0.40430658     0.19400
C1112       C  0.08703861  0.25978329  0.39501779    -0.17100
C1113       C  0.07173669  0.25854313  0.39620530    -0.19300
C1114       C  0.06402330  0.26661601  0.40680689     0.20900
C1115       C  0.04857129  0.26600494  0.40767219    -0.32300
C1116       C  0.04102169  0.27452080  0.41810105     0.01600
C1117       C  0.04913906  0.28304482  0.42812641    -0.23700
C1118       C  0.11019036  0.28872760  0.42273819    -0.28300
C1119       C  0.11799933  0.28061012  0.41221252     0.07300
C1120       C  0.11028902  0.27080182  0.40304949    -0.26900
H1121       H  0.09312916  0.30258185  0.44219133     0.12000
H1122       H  0.06656218  0.29986275  0.44474904     0.13100
H1123       H  0.09268358  0.25345337  0.38671044     0.12200
H1124       H  0.06592140  0.25134354  0.38874240     0.11500
H1125       H  0.04244141  0.25945034  0.39986935     0.16900
H1126       H  0.04351194  0.28964752  0.43624632     0.12800
H1127       H  0.11598690  0.29626316  0.42989360     0.15600
H1128       H  0.11619165  0.26453756  0.39486617     0.15400
C1129       C  0.00951055  0.32611506  0.34435350    -0.17500
C1130       C  0.01000415  0.33697148  0.33365298    -0.19600
C1131       C  0.00727698  0.35160925  0.33737427     0.21000
C1132       C  0.00430274  0.35542723  0.35205873    -0.02600
C1133       C  0.00386644  0.34446818  0.36288029    -0.05600
C1134       C  0.00634626  0.32974098  0.35895152     0.21300
C1135       C  0.00062004  0.34819510  0.37754014     0.19400
C1136       C  0.99811170  0.36288699  0.38127424    -0.17100
C1137       C  0.99847141  0.37375421  0.37052055    -0.19300
C1138       C  0.00138741  0.37011672  0.35585776     0.20900
C1139       C  0.00099611  0.38080099  0.34485732    -0.32300
C1140       C  0.00348018  0.37693680  0.33013751     0.01600
C1141       C  0.00700283  0.36239895  0.32656764    -0.23700
C1142       C  0.00533950  0.31884007  0.36961666    -0.28300
C1143       C  0.00179188  0.32239681  0.38418138     0.07300
C1144       C  0.99963573  0.33712729  0.38811931    -0.26900
H1145       H  0.01144683  0.31485236  0.34118036     0.12000
H1146       H  0.01229072  0.33388286  0.32241574     0.13100
H1147       H  0.99565022  0.36594752  0.39248061     0.12200
H1148       H  0.99625690  0.38497830  0.37363996     0.11500
H1149       H  0.99834278  0.39200921  0.34769204     0.16900
H1150       H  0.00897388  0.35933256  0.31525786     0.12800
H1151       H  0.00703120  0.30751914  0.36648464     0.15600
H1152       H  0.99693253  0.33994938  0.39933810     0.15400
C1153       C  0.38693785  0.08956461  0.30639085    -0.17500
C1154       C  0.38571308  0.07431416  0.30631852    -0.19600
C1155       C  0.39164592  0.06605493  0.29477306     0.21000
C1156       C  0.39848996  0.07325064  0.28295191    -0.02600
C1157       C  0.39968767  0.08868969  0.28300225    -0.05600
C1158       C  0.39407871  0.09683173  0.29489986     0.21300
C1159       C  0.40681101  0.09593355  0.27135539     0.19400
C1160       C  0.41245901  0.08765560  0.25966203    -0.17100
C1161       C  0.41135492  0.07234883  0.25965925    -0.19300
C1162       C  0.40452273  0.06500952  0.27131595     0.20900
C1163       C  0.40409051  0.04959916  0.27182140    -0.32300
C1164       C  0.39785851  0.04236202  0.28391475     0.01600
C1165       C  0.39134146  0.05071854  0.29514446    -0.23700
C1166       C  0.39596892  0.11206046  0.29528139    -0.28300
C1167       C  0.40326884  0.11938217  0.28387190     0.07300
C1168       C  0.40844324  0.11126443  0.27179363    -0.26900
H1169       H  0.38249191  0.09566515  0.31556112     0.12000
H1170       H  0.38037239  0.06895440  0.31545206     0.13100
H1171       H  0.41794604  0.09300818  0.25061238     0.12200
H1172       H  0.41604281  0.06623328  0.25062377     0.11500
H1173       H  0.40927055  0.04327282  0.26320371     0.16900
H1174       H  0.38651363  0.04526557  0.30451369     0.12800
H1175       H  0.39187323  0.11822096  0.30458410     0.15600
H1176       H  0.41413086  0.11681103  0.26297900     0.15400
C1177       C  0.25618086  0.08890436  0.41658268    -0.17500
C1178       C  0.25593547  0.07357049  0.41707258    -0.19600
C1179       C  0.26597711  0.06531959  0.40883491     0.21000
C1180       C  0.27609295  0.07265471  0.39968791    -0.02600
C1181       C  0.27636231  0.08812706  0.39921912    -0.05600
C1182       C  0.26648847  0.09630630  0.40786148     0.21300
C1183       C  0.28690817  0.09539522  0.39054217     0.19400
C1184       C  0.29672332  0.08718917  0.38202579    -0.17100
C1185       C  0.29645990  0.07190715  0.38248711    -0.19300
C1186       C  0.28637923  0.06456210  0.39148098     0.20900
C1187       C  0.28692244  0.04932019  0.39295685    -0.32300
C1188       C  0.27740709  0.04195181  0.40259609     0.01600
C1189       C  0.26658869  0.04995630  0.41011724    -0.23700
C1190       C  0.26749725  0.11169308  0.40806478    -0.28300
C1191       C  0.27844864  0.11896410  0.39995000     0.07300
C1192       C  0.28786163  0.11071351  0.39095771    -0.26900
H1193       H  0.24850152  0.09498473  0.42328561     0.12000
H1194       H  0.24808841  0.06817047  0.42415646     0.13100
H1195       H  0.30484477  0.09259844  0.37525966     0.12200
H1196       H  0.30439874  0.06583517  0.37608365     0.11500
H1197       H  0.29526951  0.04322091  0.38710436     0.16900
H1198       H  0.25933485  0.04437551  0.41768226     0.12800
H1199       H  0.26023501  0.11794621  0.41507769     0.15600
H1200       H  0.29628809  0.11619969  0.38462442     0.15400
C1201       C  0.37546725  0.99826468  0.36876444    -0.17500
C1202       C  0.36469998  0.99915903  0.37964081    -0.19600
C1203       C  0.35019075  0.99499934  0.37661227     0.21000
C1204       C  0.34650997  0.98975702  0.36252338    -0.02600
C1205       C  0.35735907  0.98884724  0.35156524    -0.05600
C1206       C  0.37188371  0.99322507  0.35467707     0.21300
C1207       C  0.35359086  0.98386540  0.33741151     0.19400
C1208       C  0.33912920  0.97955269  0.33441257    -0.17100
C1209       C  0.32837891  0.98044109  0.34527569    -0.19300
C1210       C  0.33194320  0.98562771  0.35930739     0.20900
C1211       C  0.32115852  0.98685660  0.37013773    -0.32300
C1212       C  0.32472931  0.99207504  0.38418925     0.01600
C1213       C  0.33927260  0.99609110  0.38737441    -0.23700
C1214       C  0.38244314  0.99294422  0.34351840    -0.28300
C1215       C  0.37857228  0.98859748  0.32925321     0.07300
C1216       C  0.36423046  0.98373895  0.32637142    -0.26900
H1217       H  0.38656160  0.00168379  0.37132086     0.12000
H1218       H  0.36770195  0.00320413  0.39039884     0.13100
H1219       H  0.33608677  0.97568193  0.32360158     0.12200
H1220       H  0.31724589  0.97719171  0.34266622     0.11500
H1221       H  0.30995665  0.98376505  0.36760243     0.16900
H1222       H  0.34206219  0.00022009  0.39816500     0.12800
H1223       H  0.39348994  0.99673044  0.34578333     0.15600
H1224       H  0.36121512  0.98030001  0.31540116     0.15400
C1225       C  0.41042685  0.25614657  0.09052873    -0.17500
C1226       C  0.40961171  0.25570989  0.07518780    -0.19600
C1227       C  0.40282814  0.26706433  0.06742739     0.21000
C1228       C  0.39638418  0.27872362  0.07530539    -0.02600
C1229       C  0.39727638  0.27920507  0.09076235    -0.05600
C1230       C  0.40450912  0.26796600  0.09842063     0.21300
C1231       C  0.39140484  0.29123663  0.09849158     0.19400
C1232       C  0.38430237  0.30241274  0.09082155    -0.17100
C1233       C  0.38338664  0.30192001  0.07556663    -0.19300
C1234       C  0.38960114  0.29026456  0.06771961     0.20900
C1235       C  0.38983789  0.29041127  0.05240258    -0.32300
C1236       C  0.39707447  0.27939210  0.04441794     0.01600
C1237       C  0.40305795  0.26741427  0.05197541    -0.23700
C1238       C  0.40610776  0.26902790  0.11374359    -0.28300
C1239       C  0.40072484  0.28129862  0.12142417     0.07300
C1240       C  0.39313882  0.29217295  0.11370400    -0.26900
H1241       H  0.41598432  0.24738734  0.09620205     0.12000
H1242       H  0.41459593  0.24664795  0.06937398     0.13100
H1243       H  0.37971009  0.31170159  0.09660542     0.12200
H1244       H  0.37814273  0.31086211  0.06987584     0.11500
H1245       H  0.38511497  0.29963992  0.04669332     0.16900
H1246       H  0.40872976  0.25892166  0.04592534     0.12800
H1247       H  0.41199642  0.26059991  0.11959331     0.15600
H1248       H  0.38888882  0.30162464  0.11950141     0.15400
C1249       C  0.25403759  0.41591579  0.08786548    -0.17500
C1250       C  0.25386986  0.41575736  0.07250416    -0.19600
C1251       C  0.26341850  0.40662634  0.06461660     0.21000
C1252       C  0.27270183  0.39703880  0.07236012    -0.02600
C1253       C  0.27285733  0.39718434  0.08785634    -0.05600
C1254       C  0.26375170  0.40693997  0.09564725     0.21300
C1255       C  0.28266893  0.38808559  0.09551165     0.19400
C1256       C  0.29175125  0.37848070  0.08768310    -0.17100
C1257       C  0.29164596  0.37838310  0.07237985    -0.19300
C1258       C  0.28241587  0.38785026  0.06464053     0.20900
C1259       C  0.28337017  0.38886315  0.04936816    -0.32300
C1260       C  0.27491283  0.39907257  0.04159082     0.01600
C1261       C  0.26448988  0.40750531  0.04922376    -0.23700
C1262       C  0.26504111  0.40803046  0.11098918    -0.28300
C1263       C  0.27540079  0.39954790  0.11860504     0.07300
C1264       C  0.28377819  0.38924222  0.11079607    -0.26900
H1265       H  0.24686881  0.42339137  0.09365254     0.12000
H1266       H  0.24659053  0.42312487  0.06679221     0.13100
H1267       H  0.29928339  0.37136325  0.09339051     0.12200
H1268       H  0.29911671  0.37120618  0.06659195     0.11500
H1269       H  0.29136881  0.38225080  0.04359177     0.16900
H1270       H  0.25799407  0.41545827  0.04334831     0.12800
H1271       H  0.25846022  0.41594432  0.11690125     0.15600
H1272       H  0.29170093  0.38257481  0.11653506     0.15400
C1273       C  0.32995191  0.34072975  0.98330362    -0.17500
C1274       C  0.34093275  0.33014102  0.98253662    -0.19600
C1275       C  0.35536250  0.33361334  0.98660704     0.21000
C1276       C  0.35882596  0.34791391  0.99135731    -0.02600
C1277       C  0.34774029  0.35857480  0.99218636    -0.05600
C1278       C  0.33323799  0.35494232  0.98815878     0.21300
C1279       C  0.35114048  0.37280813  0.99719329     0.19400
C1280       C  0.36556844  0.37627280  0.00126797    -0.17100
C1281       C  0.37657049  0.36570230  0.00042249    -0.19300
C1282       C  0.37330210  0.35149029  0.99554395     0.20900
C1283       C  0.38414009  0.34066708  0.99524025    -0.32300
C1284       C  0.38060390  0.32626738  0.99108744     0.01600
C1285       C  0.36628457  0.32291068  0.98644935    -0.23700
C1286       C  0.32226699  0.36556681  0.98911687    -0.28300
C1287       C  0.32560317  0.37977573  0.99403989     0.07300
C1288       C  0.34004847  0.38331478  0.99808336    -0.26900
H1289       H  0.31886924  0.33777869  0.98018117     0.12000
H1290       H  0.33811179  0.31919409  0.97889130     0.13100
H1291       H  0.36833572  0.38715002  0.00515643     0.12200
H1292       H  0.38761194  0.36860313  0.00372815     0.11500
H1293       H  0.39515108  0.34329732  0.99887737     0.16900
H1294       H  0.36350021  0.31182550  0.98319552     0.12800
H1295       H  0.31112686  0.36275864  0.98604375     0.15600
H1296       H  0.34266076  0.39423280  0.00198289     0.15400
C1297       C  0.26228780  0.92190326  0.39460352    -0.17500
C1298       C  0.26273839  0.90657299  0.39410366    -0.19600
C1299       C  0.26876043  0.89860639  0.40574358     0.21000
C1300       C  0.27393676  0.90618585  0.41822165    -0.02600
C1301       C  0.27339348  0.92164453  0.41876484    -0.05600
C1302       C  0.26778696  0.92958184  0.40678305     0.21300
C1303       C  0.27901719  0.92916139  0.43105839     0.19400
C1304       C  0.28468721  0.92122226  0.44287908    -0.17100
C1305       C  0.28527254  0.90595556  0.44232112    -0.19300
C1306       C  0.28015896  0.89836665  0.42994945     0.20900
C1307       C  0.28163618  0.88314757  0.42891908    -0.32300
C1308       C  0.27700704  0.87552823  0.41632067     0.01600
C1309       C  0.27018690  0.88327930  0.40492930    -0.23700
C1310       C  0.26841917  0.94501081  0.40692570    -0.28300
C1311       C  0.27476155  0.95253161  0.41883926     0.07300
C1312       C  0.27953889  0.94448507  0.43105361    -0.26900
H1313       H  0.25790824  0.92777133  0.38531204     0.12000
H1314       H  0.25867310  0.90096122  0.38444940     0.13100
H1315       H  0.28901517  0.92684349  0.45241568     0.12200
H1316       H  0.29001650  0.90009974  0.45144413     0.11500
H1317       H  0.28674155  0.87725554  0.43783119     0.16900
H1318       H  0.26655334  0.87748196  0.39520598     0.12800
H1319       H  0.26477351  0.95108827  0.39744770     0.15600
H1320       H  0.28436464  0.95014738  0.44033508     0.15400
C1321       C  0.21337781  0.79142702  0.40430630    -0.17500
C1322       C  0.20253195  0.78055301  0.40511558    -0.19600
C1323       C  0.20637967  0.76576658  0.40659245     0.21000
C1324       C  0.22134207  0.76191796  0.40709554    -0.02600
C1325       C  0.23229536  0.77291343  0.40640611    -0.05600
C1326       C  0.22829345  0.78774768  0.40506047     0.21300
C1327       C  0.24723329  0.76906523  0.40731166     0.19400
C1328       C  0.25110520  0.75428576  0.40861912    -0.17100
C1329       C  0.24028457  0.74340507  0.40914757    -0.19300
C1330       C  0.22537472  0.74710013  0.40848043     0.20900
C1331       C  0.21444999  0.73624456  0.40934304    -0.32300
C1332       C  0.19947506  0.73995981  0.40909044     0.01600
C1333       C  0.19555233  0.75478816  0.40769233    -0.23700
C1334       C  0.23925038  0.79863864  0.40484525    -0.28300
C1335       C  0.25416706  0.79490602  0.40617464     0.07300
C1336       C  0.25803437  0.78005500  0.40720100    -0.26900
H1337       H  0.21008370  0.80274931  0.40326774     0.12000
H1338       H  0.19111113  0.78372621  0.40466136     0.13100
H1339       H  0.26252102  0.75113684  0.40932408     0.12200
H1340       H  0.24358392  0.73208794  0.41022114     0.11500
H1341       H  0.21762556  0.72489057  0.41046663     0.16900
H1342       H  0.18407182  0.75778804  0.40745400     0.12800
H1343       H  0.23613065  0.81004069  0.40410550     0.15600
H1344       H  0.26946744  0.77704059  0.40823179     0.15400
C1345       C  0.32594036  0.82488826  0.33908182    -0.17500
C1346       C  0.33673396  0.82490298  0.32815970    -0.19600
C1347       C  0.35166707  0.82511503  0.33186982     0.21000
C1348       C  0.35575442  0.82525178  0.34676430    -0.02600
C1349       C  0.34481581  0.82518125  0.35783366    -0.05600
C1350       C  0.32984505  0.82505377  0.35395442     0.21300
C1351       C  0.34885522  0.82532386  0.37275133     0.19400
C1352       C  0.36381409  0.82555579  0.37643070    -0.17100
C1353       C  0.37463058  0.82568047  0.36548383    -0.19300
C1354       C  0.37074492  0.82553528  0.35059865     0.20900
C1355       C  0.38154381  0.82573921  0.33950334    -0.32300
C1356       C  0.37755366  0.82563481  0.32458156     0.01600
C1357       C  0.36254169  0.82527594  0.32093304    -0.23700
C1358       C  0.31903125  0.82520169  0.36497772    -0.28300
C1359       C  0.32288202  0.82539490  0.37993543     0.07300
C1360       C  0.33788800  0.82535210  0.38369305    -0.26900
H1361       H  0.31450727  0.82478142  0.33588184     0.12000
H1362       H  0.33338488  0.82480108  0.31678107     0.13100
H1363       H  0.36716539  0.82569262  0.38780647     0.12200
H1364       H  0.38606370  0.82590696  0.36867796     0.11500
H1365       H  0.39303669  0.82605355  0.34248762     0.16900
H1366       H  0.35927605  0.82523483  0.30952497     0.12800
H1367       H  0.30756363  0.82521897  0.36188296     0.15600
H1368       H  0.34103900  0.82556150  0.39512962     0.15400
C1369       C  0.43563929  0.92210401  0.27507570    -0.17500
C1370       C  0.43566366  0.90685343  0.27624573    -0.19600
C1371       C  0.42244668  0.89895189  0.27595748     0.21000
C1372       C  0.40911371  0.90644266  0.27385429    -0.02600
C1373       C  0.40908416  0.92188844  0.27273629    -0.05600
C1374       C  0.42239550  0.92973339  0.27366831     0.21300
C1375       C  0.39570736  0.92950500  0.27139440     0.19400
C1376       C  0.38254554  0.92151407  0.27055801    -0.17100
C1377       C  0.38258500  0.90620224  0.27153357    -0.19300
C1378       C  0.39577844  0.89856350  0.27342976     0.20900
C1379       C  0.39585208  0.88326918  0.27534598    -0.32300
C1380       C  0.40905663  0.87583427  0.27807353     0.01600
C1381       C  0.42231220  0.88375786  0.27816295    -0.23700
C1382       C  0.42219026  0.94507157  0.27408540    -0.28300
C1383       C  0.40886023  0.95277672  0.27381439     0.07300
C1384       C  0.39568368  0.94494208  0.27179380    -0.26900
H1385       H  0.44596301  0.92796988  0.27572793     0.12000
H1386       H  0.44600786  0.90126377  0.27771573     0.13100
H1387       H  0.37216658  0.92713091  0.26950009     0.12200
H1388       H  0.37224017  0.90035444  0.27114320     0.11500
H1389       H  0.38559788  0.87723985  0.27529048     0.16900
H1390       H  0.43254358  0.87809158  0.28011124     0.12800
H1391       H  0.43239491  0.95101346  0.27557569     0.15600
H1392       H  0.38535791  0.95076879  0.27168452     0.15400
C1393       C  0.40057977  0.79136309  0.21471317    -0.17500
C1394       C  0.40052757  0.78066252  0.20369997    -0.19600
C1395       C  0.40233612  0.76583900  0.20719059     0.21000
C1396       C  0.40404058  0.76175694  0.22198339    -0.02600
C1397       C  0.40403379  0.77257743  0.23313259    -0.05600
C1398       C  0.40236945  0.78745349  0.22945015     0.21300
C1399       C  0.40587606  0.76853086  0.24791608     0.19400
C1400       C  0.40759329  0.75368752  0.25141584    -0.17100
C1401       C  0.40765502  0.74298630  0.24037854    -0.19300
C1402       C  0.40597155  0.74690492  0.22561800     0.20900
C1403       C  0.40645725  0.73628382  0.21442262    -0.32300
C1404       C  0.40505124  0.74028000  0.19958812     0.01600
C1405       C  0.40277210  0.75509154  0.19612216    -0.23700
C1406       C  0.40265878  0.79818168  0.24052245    -0.28300
C1407       C  0.40459936  0.79430173  0.25529855     0.07300
C1408       C  0.40613704  0.77940043  0.25889349    -0.26900
H1409       H  0.39928536  0.80273119  0.21168452     0.12000
H1410       H  0.39921082  0.78400861  0.19241291     0.13100
H1411       H  0.40900738  0.75035524  0.26269547     0.12200
H1412       H  0.40913408  0.73163600  0.24338741     0.11500
H1413       H  0.40822114  0.72492430  0.21725642     0.16900
H1414       H  0.40169598  0.75831991  0.18476904     0.12800
H1415       H  0.40155402  0.80960192  0.23759182     0.15600
H1416       H  0.40770145  0.77626610  0.27021588     0.15400
C1417       C  0.16283336  0.50394597  0.26657234    -0.17500
C1418       C  0.16261471  0.48866589  0.26626033    -0.19600
C1419       C  0.16774868  0.48064872  0.27825939     0.21000
C1420       C  0.17338765  0.48807506  0.29060968    -0.02600
C1421       C  0.17363812  0.50354004  0.29091221    -0.05600
C1422       C  0.16822194  0.51146785  0.27887436     0.21300
C1423       C  0.17911425  0.51105297  0.30330619     0.19400
C1424       C  0.18444818  0.50297151  0.31520404    -0.17100
C1425       C  0.18417599  0.48763346  0.31491540    -0.19300
C1426       C  0.17856851  0.48006629  0.30272163     0.20900
C1427       C  0.17781937  0.46467429  0.30250032    -0.32300
C1428       C  0.17190289  0.45723442  0.29032515     0.01600
C1429       C  0.16709546  0.46534162  0.27818735    -0.23700
C1430       C  0.16812394  0.52678325  0.27936932    -0.28300
C1431       C  0.17339028  0.53443809  0.29171281     0.07300
C1432       C  0.17899609  0.52647693  0.30362190    -0.26900
H1433       H  0.15867643  0.50988909  0.25722316     0.12000
H1434       H  0.15828479  0.48311548  0.25668276     0.13100
H1435       H  0.18872678  0.50851920  0.32480231     0.12200
H1436       H  0.18823938  0.48168658  0.32430104     0.11500
H1437       H  0.18160671  0.45852022  0.31187316     0.16900
H1438       H  0.16259636  0.45974209  0.26870882     0.12800
H1439       H  0.16381795  0.53276119  0.27010285     0.15600
H1440       H  0.18306698  0.53225655  0.31317978     0.15400
C1441       C  0.18240399  0.65389968  0.33229843    -0.17500
C1442       C  0.18187076  0.66470928  0.34318417    -0.19600
C1443       C  0.17682285  0.66136217  0.35730845     0.21000
C1444       C  0.17253351  0.64689526  0.36057802    -0.02600
C1445       C  0.17309563  0.63594392  0.34956132    -0.05600
C1446       C  0.17790133  0.63952323  0.33531903     0.21300
C1447       C  0.16865259  0.62149249  0.35273672     0.19400
C1448       C  0.16381356  0.61811970  0.36694389    -0.17100
C1449       C  0.16323894  0.62896434  0.37784308    -0.19300
C1450       C  0.16751627  0.64341432  0.37478010     0.20900
C1451       C  0.16673618  0.65446205  0.38558727    -0.32300
C1452       C  0.17077310  0.66899410  0.38232477     0.01600
C1453       C  0.17585982  0.67227703  0.36814312    -0.23700
C1454       C  0.17788746  0.62875436  0.32427624    -0.28300
C1455       C  0.17326601  0.61434801  0.32724125     0.07300
C1456       C  0.16888590  0.61076123  0.34159872    -0.26900
H1457       H  0.18620171  0.65683047  0.32145208     0.12000
H1458       H  0.18528263  0.67574445  0.34050541     0.13100
H1459       H  0.16034957  0.60709769  0.36960623     0.12200
H1460       H  0.15935809  0.62605583  0.38866540     0.11500
H1461       H  0.16275898  0.65180285  0.39644544     0.16900
H1462       H  0.17905342  0.68339103  0.36549857     0.12800
H1463       H  0.18136360  0.63163294  0.31330223     0.15600
H1464       H  0.16526605  0.59972322  0.34400583     0.15400
C1465       C  0.28017637  0.48853237  0.14258932    -0.17500
C1466       C  0.28045066  0.50383183  0.14285735    -0.19600
C1467       C  0.28861196  0.51137985  0.15351806     0.21000
C1468       C  0.29666924  0.50341965  0.16395958    -0.02600
C1469       C  0.29635702  0.48791606  0.16371355    -0.05600
C1470       C  0.28804748  0.48047833  0.15298234     0.21300
C1471       C  0.30420756  0.47988136  0.17427667     0.19400
C1472       C  0.31240455  0.48747510  0.18490276    -0.17100
C1473       C  0.31275730  0.50282900  0.18511411    -0.19300
C1474       C  0.30488624  0.51093692  0.17473069     0.20900
C1475       C  0.30488908  0.52638626  0.17505120    -0.32300
C1476       C  0.29662991  0.53440903  0.16482447     0.01600
C1477       C  0.28865192  0.52674017  0.15402134    -0.23700
C1478       C  0.28758076  0.46512755  0.15290119    -0.28300
C1479       C  0.29519584  0.45694814  0.16347252     0.07300
C1480       C  0.30356691  0.46444346  0.17411326    -0.26900
H1481       H  0.27372209  0.48299105  0.13428476     0.12000
H1482       H  0.27419601  0.50977118  0.13475846     0.13100
H1483       H  0.31850763  0.48153369  0.19311241     0.12200
H1484       H  0.31912053  0.50836985  0.19348529     0.11500
H1485       H  0.31103093  0.53214066  0.18345023     0.16900
H1486       H  0.28227662  0.53274391  0.14605605     0.12800
H1487       H  0.28102240  0.45954109  0.14470052     0.15600
H1488       H  0.30941724  0.45829109  0.18235655     0.15400
C1489       C  0.20760595  0.59889682  0.21818944    -0.17500
C1490       C  0.21826189  0.59863508  0.20710383    -0.19600
C1491       C  0.23263961  0.59406930  0.21010255     0.21000
C1492       C  0.23631746  0.58993969  0.22451654    -0.02600
C1493       C  0.22556080  0.59024097  0.23572736    -0.05600
C1494       C  0.21109779  0.59461443  0.23251995     0.21300
C1495       C  0.22922907  0.58589752  0.25007237     0.19400
C1496       C  0.24363050  0.58152241  0.25314359    -0.17100
C1497       C  0.25424524  0.58120009  0.24206683    -0.19300
C1498       C  0.25068369  0.58527207  0.22769929     0.20900
C1499       C  0.26119936  0.58454962  0.21645149    -0.32300
C1500       C  0.25765396  0.58844662  0.20196675     0.01600
C1501       C  0.24333189  0.59335335  0.19893503    -0.23700
C1502       C  0.20033427  0.59431376  0.24360109    -0.28300
C1503       C  0.20381913  0.58962580  0.25786296     0.07300
C1504       C  0.21838490  0.58567523  0.26102108    -0.26900
H1505       H  0.19657393  0.60231340  0.21550735     0.12000
H1506       H  0.21520721  0.60187279  0.19612881     0.13100
H1507       H  0.24665387  0.57817508  0.26409576     0.12200
H1508       H  0.26523340  0.57762491  0.24471930     0.11500
H1509       H  0.27216169  0.58079292  0.21897746     0.16900
H1510       H  0.24043503  0.59637603  0.18785022     0.12800
H1511       H  0.18917081  0.59738986  0.24102338     0.15600
H1512       H  0.22123174  0.58206275  0.27194112     0.15400
C1513       C  0.37602388  0.63295525  0.18177053    -0.17500
C1514       C  0.36525006  0.62194529  0.18218345    -0.19600
C1515       C  0.35085200  0.62476136  0.17752610     0.21000
C1516       C  0.34728814  0.63893833  0.17262372    -0.02600
C1517       C  0.35816430  0.65006698  0.17223061    -0.05600
C1518       C  0.37264805  0.64704310  0.17670378     0.21300
C1519       C  0.35455480  0.66417114  0.16719805     0.19400
C1520       C  0.34014693  0.66708646  0.16272732    -0.17100
C1521       C  0.32943117  0.65609825  0.16307260    -0.19300
C1522       C  0.33288899  0.64198036  0.16794591     0.20900
C1523       C  0.32220632  0.63085368  0.16806699    -0.32300
C1524       C  0.32561227  0.61657950  0.17272994     0.01600
C1525       C  0.34001355  0.61365773  0.17751787    -0.23700
C1526       C  0.38348616  0.65809444  0.17586272    -0.28300
C1527       C  0.37998983  0.67216765  0.17065765     0.07300
C1528       C  0.36541763  0.67508460  0.16652246    -0.26900
H1529       H  0.38704770  0.63040513  0.18531852     0.12000
H1530       H  0.36822407  0.61116870  0.18604388     0.13100
H1531       H  0.33717934  0.67785894  0.15884294     0.12200
H1532       H  0.31842763  0.65863421  0.15944883     0.11500
H1533       H  0.31123018  0.63328734  0.16427514     0.16900
H1534       H  0.34281572  0.60273907  0.18111393     0.12800
H1535       H  0.39463679  0.65570683  0.17913606     0.15600
H1536       H  0.36253405  0.68584353  0.16252298     0.15400
C1537       C  0.07296777  0.71580282  0.38409872    -0.17500
C1538       C  0.08835123  0.71561903  0.38378787    -0.19600
C1539       C  0.09649336  0.71778129  0.39667724     0.21000
C1540       C  0.08900161  0.72064360  0.40991288    -0.02600
C1541       C  0.07346968  0.72071578  0.41024731    -0.05600
C1542       C  0.06539186  0.71806853  0.39731649     0.21300
C1543       C  0.06604945  0.72282278  0.42364667     0.19400
C1544       C  0.07415291  0.72538771  0.43646636    -0.17100
C1545       C  0.08948129  0.72546159  0.43611015    -0.19300
C1546       C  0.09700337  0.72288102  0.42294832     0.20900
C1547       C  0.11235496  0.72194281  0.42275141    -0.32300
C1548       C  0.11993532  0.71839993  0.40979001     0.01600
C1549       C  0.11192052  0.71661100  0.39669789    -0.23700
C1550       C  0.04996102  0.71698160  0.39798390    -0.28300
C1551       C  0.04255270  0.71819555  0.41148679     0.07300
C1552       C  0.05070418  0.72161262  0.42415680    -0.26900
H1553       H  0.06698878  0.71378609  0.37404389     0.12000
H1554       H  0.09387806  0.71348799  0.37349750     0.13100
H1555       H  0.06863051  0.72704017  0.44684762     0.12200
H1556       H  0.09545997  0.72719868  0.44621821     0.11500
H1557       H  0.11835982  0.72328035  0.43290940     0.16900
H1558       H  0.11762896  0.71388034  0.38664416     0.12800
H1559       H  0.04383993  0.71421567  0.38818565     0.15600
H1560       H  0.04515628  0.72257456  0.43461960     0.15400
C1561       C  0.99606801  0.48258892  0.32844275    -0.17500
C1562       C  0.99696114  0.49787280  0.32862498    -0.19600
C1563       C  0.99173489  0.50603905  0.31675581     0.21000
C1564       C  0.98495459  0.49877809  0.30487857    -0.02600
C1565       C  0.98405085  0.48337573  0.30469681    -0.05600
C1566       C  0.98994768  0.47523041  0.31638184     0.21300
C1567       C  0.97790979  0.47612131  0.29248196     0.19400
C1568       C  0.97206758  0.48429269  0.28092128    -0.17100
C1569       C  0.97295281  0.49954978  0.28110744    -0.19300
C1570       C  0.97968305  0.50685355  0.29286055     0.20900
C1571       C  0.98177273  0.52202378  0.29251329    -0.32300
C1572       C  0.98914011  0.52924844  0.30397255     0.01600
C1573       C  0.99370407  0.52125885  0.31626757    -0.23700
C1574       C  0.99033011  0.45990816  0.31542314    -0.28300
C1575       C  0.98514746  0.45270855  0.30280495     0.07300
C1576       C  0.97842912  0.46084469  0.29166232    -0.26900
H1577       H  0.00056328  0.47650874  0.33754167     0.12000
H1578       H  0.00210523  0.50328417  0.33787264     0.13100
H1579       H  0.96722105  0.47886805  0.27152111     0.12200
H1580       H  0.96874933  0.50561542  0.27185899     0.11500
H1581       H  0.97808256  0.52814184  0.28307268     0.16900
H1582       H  0.99932157  0.52678395  0.32517528     0.12800
H1583       H  0.99544294  0.45367433  0.32408917     0.15600
H1584       H  0.97422934  0.45533292  0.28199592     0.15400
C1585       C  0.08980918  0.60105365  0.26845663    -0.17500
C1586       C  0.07447174  0.59970685  0.26830385    -0.19600
C1587       C  0.06758123  0.58713586  0.27390098     0.21000
C1588       C  0.07631622  0.57562481  0.27927333    -0.02600
C1589       C  0.09175974  0.57703712  0.27955290    -0.05600
C1590       C  0.09857036  0.58989633  0.27429411     0.21300
C1591       C  0.10033483  0.56577471  0.28560399     0.19400
C1592       C  0.09356061  0.55298335  0.29071922    -0.17100
C1593       C  0.07832304  0.55155997  0.29037495    -0.19300
C1594       C  0.06961165  0.56292543  0.28495290     0.20900
C1595       C  0.05431157  0.56207569  0.28582078    -0.32300
C1596       C  0.04547894  0.57383357  0.28136999     0.01600
C1597       C  0.05216437  0.58614112  0.27490333    -0.23700
C1598       C  0.11392842  0.59151835  0.27544799    -0.28300
C1599       C  0.12237053  0.58057812  0.28217948     0.07300
C1600       C  0.11549527  0.56765344  0.28691006    -0.26900
H1601       H  0.09479896  0.61098600  0.26432191     0.12000
H1602       H  0.06798184  0.60864745  0.26408627     0.13100
H1603       H  0.10003195  0.54420413  0.29529768     0.12200
H1604       H  0.07332650  0.54172033  0.29472416     0.11500
H1605       H  0.04928861  0.55250748  0.29073110     0.16900
H1606       H  0.04546162  0.59527902  0.27150243     0.12800
H1607       H  0.11919401  0.60148104  0.27172657     0.15600
H1608       H  0.12197910  0.55907458  0.29186485     0.15400
C1609       C  0.01820559  0.65522968  0.34949908    -0.17500
C1610       C  0.01883028  0.64414839  0.33896331    -0.19600
C1611       C  0.01471961  0.62980750  0.34253269     0.21000
C1612       C  0.01026890  0.62648111  0.35694403    -0.02600
C1613       C  0.00968351  0.63768151  0.36761567    -0.05600
C1614       C  0.01349767  0.65213498  0.36377902     0.21300
C1615       C  0.00492413  0.63451069  0.38197976     0.19400
C1616       C  0.00102103  0.62007981  0.38556136    -0.17100
C1617       C  0.00154014  0.60897104  0.37494781    -0.19300
C1618       C  0.00600042  0.61208450  0.36056709     0.20900
C1619       C  0.00578825  0.60121925  0.34962086    -0.32300
C1620       C  0.00966966  0.60466306  0.33511151     0.01600
C1621       C  0.01449736  0.61887853  0.33178253    -0.23700
C1622       C  0.01219825  0.66334792  0.37415579    -0.28300
C1623       C  0.00715148  0.66041105  0.38838811     0.07300
C1624       C  0.00380708  0.64590183  0.39234752    -0.26900
H1625       H  0.02120233  0.66627735  0.34641682     0.12000
H1626       H  0.02227936  0.64685294  0.32794160     0.13100
H1627       H  0.99734755  0.61742372  0.39652019     0.12200
H1628       H  0.99823676  0.59798424  0.37793581     0.11500
H1629       H  0.00205931  0.59027211  0.35226741     0.16900
H1630       H  0.01757275  0.62161691  0.32065240     0.12800
H1631       H  0.01490747  0.67447142  0.37105292     0.15600
H1632       H  0.99987469  0.64356883  0.40329815     0.15400
C1633       C  0.38754028  0.72051391  0.08525331    -0.17500
C1634       C  0.38823363  0.72128683  0.06991574    -0.19600
C1635       C  0.40169367  0.71984107  0.06256357     0.21000
C1636       C  0.41458207  0.71765729  0.07082349    -0.02600
C1637       C  0.41386020  0.71671184  0.08627451    -0.05600
C1638       C  0.40027967  0.71817872  0.09356230     0.21300
C1639       C  0.42671837  0.71401977  0.09439678     0.19400
C1640       C  0.44018969  0.71264575  0.08710721    -0.17100
C1641       C  0.44091642  0.71367600  0.07186662    -0.19300
C1642       C  0.42817476  0.71601255  0.06363622     0.20900
C1643       C  0.42875308  0.71611996  0.04832017    -0.32300
C1644       C  0.41593778  0.71768291  0.03994908     0.01600
C1645       C  0.40246019  0.71995838  0.04712733    -0.23700
C1646       C  0.39970162  0.71707036  0.10897526    -0.28300
C1647       C  0.41248264  0.71406716  0.11707635     0.07300
C1648       C  0.42590329  0.71255707  0.10965507    -0.26900
H1649       H  0.37699787  0.72159583  0.09061248     0.12000
H1650       H  0.37820504  0.72289141  0.06379395     0.13100
H1651       H  0.45016469  0.71063341  0.09319352     0.12200
H1652       H  0.45143033  0.71238620  0.06649091     0.11500
H1653       H  0.43916043  0.71431828  0.04286218     0.16900
H1654       H  0.39250610  0.72093523  0.04073953     0.12800
H1655       H  0.38929683  0.71812023  0.11461555     0.15600
H1656       H  0.43578965  0.71030872  0.11582045     0.15400
C1657       C  0.28002625  0.48867385  0.02278911    -0.17500
C1658       C  0.28074577  0.50390174  0.02234787    -0.19600
C1659       C  0.29289154  0.51089485  0.01604472     0.21000
C1660       C  0.30473333  0.50254533  0.01068687    -0.02600
C1661       C  0.30397743  0.48716985  0.01107613    -0.05600
C1662       C  0.29142465  0.48025236  0.01690604     0.21300
C1663       C  0.31544911  0.47874032  0.00504917     0.19400
C1664       C  0.32784958  0.48578752  0.99925192    -0.17100
C1665       C  0.32864218  0.50107576  0.99895014    -0.19300
C1666       C  0.31701013  0.50953875  0.00435748     0.20900
C1667       C  0.31709183  0.52481244  0.00294856    -0.32300
C1668       C  0.30489449  0.53302879  0.00747558     0.01600
C1669       C  0.29307550  0.52606153  0.01442459    -0.23700
C1670       C  0.29014872  0.46505799  0.01614369    -0.28300
C1671       C  0.30113263  0.45665143  0.00945852     0.07300
C1672       C  0.31398950  0.46346915  0.00435134    -0.26900
H1673       H  0.27036321  0.48348042  0.02735774     0.12000
H1674       H  0.27162805  0.51020270  0.02658204     0.13100
H1675       H  0.33677768  0.47948098  0.99464021     0.12200
H1676       H  0.33816859  0.50627331  0.99411290     0.11500
H1677       H  0.32627555  0.53020195  0.99766664     0.16900
H1678       H  0.28376189  0.53241096  0.01815150     0.12800
H1679       H  0.28027442  0.45981816  0.02020736     0.15600
H1680       H  0.32248677  0.45699440  0.99917280     0.15400
C1681       C  0.31218088  0.60202363  0.09028725    -0.17500
C1682       C  0.31281926  0.60218853  0.07500878    -0.19600
C1683       C  0.30069987  0.59768486  0.06666090     0.21000
C1684       C  0.28760646  0.59350271  0.07373844    -0.02600
C1685       C  0.28696557  0.59332075  0.08922822    -0.05600
C1686       C  0.29941846  0.59734357  0.09747970     0.21300
C1687       C  0.27408731  0.58862615  0.09643220     0.19400
C1688       C  0.26179692  0.58466877  0.08800777    -0.17100
C1689       C  0.26243927  0.58483165  0.07264091    -0.19300
C1690       C  0.27538023  0.58896675  0.06536147     0.20900
C1691       C  0.27656205  0.58804598  0.04994628    -0.32300
C1692       C  0.28990482  0.59142898  0.04292420     0.01600
C1693       C  0.30171388  0.59669211  0.05139001    -0.23700
C1694       C  0.29912173  0.59615577  0.11275866    -0.28300
C1695       C  0.28659426  0.59090968  0.12007736     0.07300
C1696       C  0.27394022  0.58751648  0.11185820    -0.26900
H1697       H  0.32180199  0.60523466  0.09648168     0.12000
H1698       H  0.32292922  0.60550417  0.06971735     0.13100
H1699       H  0.25177041  0.58112450  0.09330274     0.12200
H1700       H  0.25290052  0.58139094  0.06644783     0.11500
H1701       H  0.26742558  0.58394249  0.04354194     0.16900
H1702       H  0.31200256  0.59946770  0.04610922     0.12800
H1703       H  0.30887328  0.59896990  0.11895304     0.15600
H1704       H  0.26421260  0.58351346  0.11738699     0.15400
C1705       C  0.33697763  0.65180791  0.99588035    -0.17500
C1706       C  0.34744458  0.66289738  0.99682935    -0.19600
C1707       C  0.36230927  0.65942445  0.99835794     0.21000
C1708       C  0.36675163  0.64469108  0.99905592    -0.02600
C1709       C  0.35618024  0.63349862  0.99814392    -0.05600
C1710       C  0.34125370  0.63712067  0.99647456     0.21300
C1711       C  0.36052914  0.61872080  0.99882877     0.19400
C1712       C  0.37542539  0.61529637  0.00046454    -0.17100
C1713       C  0.38596036  0.62643634  0.00125458    -0.19300
C1714       C  0.38173995  0.64115973  0.00049645     0.20900
C1715       C  0.39220940  0.65242846  0.00090145    -0.32300
C1716       C  0.38776375  0.66709159  0.99997390     0.01600
C1717       C  0.37281246  0.67048014  0.99893833    -0.23700
C1718       C  0.33081187  0.62600693  0.99546207    -0.28300
C1719       C  0.33501042  0.61128649  0.99620674     0.07300
C1720       C  0.34987851  0.60766883  0.99788991    -0.26900
H1721       H  0.32554150  0.65471463  0.99464125     0.12000
H1722       H  0.34392663  0.67419049  0.99626824     0.13100
H1723       H  0.37893382  0.60400410  0.00104529     0.12200
H1724       H  0.39740759  0.62353729  0.00238852     0.11500
H1725       H  0.40375895  0.64980049  0.00169324     0.16900
H1726       H  0.36931541  0.68177384  0.99815655     0.12800
H1727       H  0.31934775  0.62886001  0.99428153     0.15600
H1728       H  0.35313816  0.59630011  0.99855132     0.15400
C1729       C  0.49170606  0.67978417  0.17665261    -0.17500
C1730       C  0.50707496  0.67996495  0.17723021    -0.19600
C1731       C  0.51487521  0.69316874  0.17585363     0.21000
C1732       C  0.50704713  0.70633443  0.17403918    -0.02600
C1733       C  0.49154514  0.70616116  0.17353278    -0.05600
C1734       C  0.48381751  0.69280794  0.17472534     0.21300
C1735       C  0.48380360  0.71934756  0.17164018     0.19400
C1736       C  0.49155143  0.73257550  0.17041669    -0.17100
C1737       C  0.50686361  0.73273632  0.17083141    -0.19300
C1738       C  0.51469782  0.71968430  0.17256836     0.20900
C1739       C  0.53005154  0.71978743  0.17275634    -0.32300
C1740       C  0.53800955  0.70675055  0.17448501     0.01600
C1741       C  0.53032859  0.69345576  0.17612230    -0.23700
C1742       C  0.46838713  0.69271525  0.17373949    -0.28300
C1743       C  0.46061635  0.70582327  0.17154781     0.07300
C1744       C  0.46846222  0.71909095  0.17073423    -0.26900
H1745       H  0.48598792  0.66942479  0.17761834     0.12000
H1746       H  0.51286757  0.66974477  0.17864645     0.13100
H1747       H  0.48576516  0.74279831  0.16898141     0.12200
H1748       H  0.51258760  0.74308090  0.16972378     0.11500
H1749       H  0.53582055  0.73009647  0.17149836     0.16900
H1750       H  0.53635308  0.68334825  0.17741786     0.12800
H1751       H  0.46246527  0.68244127  0.17442475     0.15600
H1752       H  0.46263106  0.72927026  0.16913515     0.15400
C1753       C  0.61992825  0.63377574  0.17891351    -0.17500
C1754       C  0.63051523  0.62270374  0.17920698    -0.19600
C1755       C  0.64544143  0.62616647  0.18086363     0.21000
C1756       C  0.64968049  0.64095539  0.18246141    -0.02600
C1757       C  0.63899380  0.65214623  0.18208474    -0.05600
C1758       C  0.62405111  0.64854129  0.18022311     0.21300
C1759       C  0.64330915  0.66694645  0.18327407     0.19400
C1760       C  0.65819214  0.67041073  0.18518073    -0.17100
C1761       C  0.66874577  0.65934634  0.18562606    -0.19300
C1762       C  0.66463299  0.64460660  0.18410184     0.20900
C1763       C  0.67526153  0.63352213  0.18377396    -0.32300
C1764       C  0.67122429  0.61877382  0.18171540     0.01600
C1765       C  0.65622523  0.61516704  0.18056209    -0.23700
C1766       C  0.61355003  0.65975982  0.17941525    -0.28300
C1767       C  0.61780681  0.67457205  0.18020850     0.07300
C1768       C  0.63272279  0.67803357  0.18227816    -0.26900
H1769       H  0.60851332  0.63078934  0.17747886     0.12000
H1770       H  0.62703315  0.61142316  0.17797371     0.13100
H1771       H  0.66169985  0.68170737  0.18617042     0.12200
H1772       H  0.68017347  0.66234374  0.18693404     0.11500
H1773       H  0.68674985  0.63644481  0.18471907     0.16900
H1774       H  0.65297036  0.60386067  0.17894782     0.12800
H1775       H  0.60211031  0.65696353  0.17777313     0.15600
H1776       H  0.63613441  0.68938821  0.18294410     0.15400
C1777       C  0.74578366  0.57696949  0.24573615    -0.17500
C1778       C  0.75687103  0.57700478  0.25636886    -0.19600
C1779       C  0.77079911  0.58281958  0.25322461     0.21000
C1780       C  0.77352331  0.58869908  0.23921418    -0.02600
C1781       C  0.76231487  0.58865726  0.22846171    -0.05600
C1782       C  0.74837977  0.58276186  0.23173477     0.21300
C1783       C  0.76509504  0.59444772  0.21441953     0.19400
C1784       C  0.77903726  0.60018601  0.21125784    -0.17100
C1785       C  0.79010435  0.60023423  0.22187901    -0.19300
C1786       C  0.78748094  0.59452423  0.23588676     0.20900
C1787       C  0.79863413  0.59437354  0.24652311    -0.32300
C1788       C  0.79613319  0.58833394  0.26046352     0.01600
C1789       C  0.78209231  0.58268757  0.26374908    -0.23700
C1790       C  0.73732695  0.58271846  0.22094970    -0.28300
C1791       C  0.73997066  0.58851508  0.20688048     0.07300
C1792       C  0.75393541  0.59436474  0.20376495    -0.26900
H1793       H  0.73516631  0.57237649  0.24846549     0.12000
H1794       H  0.75455969  0.57242171  0.26704995     0.13100
H1795       H  0.78139969  0.60464208  0.20053488     0.12200
H1796       H  0.80076071  0.60470906  0.21910578     0.11500
H1797       H  0.80936901  0.59872497  0.24383529     0.16900
H1798       H  0.77999632  0.57800686  0.27443663     0.12800
H1799       H  0.72666310  0.57812364  0.22351029     0.15600
H1800       H  0.75616556  0.59878354  0.19299304     0.15400
C1801       C  0.92562725  0.60359908  0.31169517    -0.17500
C1802       C  0.91031727  0.60393632  0.31135150    -0.19600
C1803       C  0.90269216  0.59921991  0.29885235     0.21000
C1804       C  0.91057247  0.59467352  0.28634783    -0.02600
C1805       C  0.92608477  0.59426275  0.28672097    -0.05600
C1806       C  0.93357980  0.59848757  0.29956350     0.21300
C1807       C  0.93403812  0.58903177  0.27450989     0.19400
C1808       C  0.92637596  0.58493251  0.26179070    -0.17100
C1809       C  0.91099918  0.58542632  0.26138735    -0.19300
C1810       C  0.90295329  0.58997210  0.27371700     0.20900
C1811       C  0.88747930  0.58934988  0.27388539    -0.32300
C1812       C  0.87959870  0.59314673  0.28663407     0.01600
C1813       C  0.88733848  0.59843950  0.29889457    -0.23700
C1814       C  0.94882673  0.59687318  0.30035363    -0.28300
C1815       C  0.95680728  0.59079857  0.28861196     0.07300
C1816       C  0.94938929  0.58735764  0.27550806    -0.26900
H1817       H  0.93123543  0.60694984  0.32161663     0.12000
H1818       H  0.90442448  0.60755387  0.32100804     0.13100
H1819       H  0.93225876  0.58099020  0.25225877     0.12200
H1820       H  0.90538278  0.58186916  0.25154531     0.11500
H1821       H  0.88163600  0.58528380  0.26436915     0.16900
H1822       H  0.88140807  0.60154420  0.30871392     0.12800
H1823       H  0.95439406  0.59968425  0.31046958     0.15600
H1824       H  0.95541151  0.58268487  0.26639774     0.15400
C1825       C  0.48933168  0.82802060  0.26666508    -0.17500
C1826       C  0.50461653  0.82881962  0.26707773    -0.19600
C1827       C  0.51211975  0.82731227  0.28038107     0.21000
C1828       C  0.50417680  0.82484304  0.29340106    -0.02600
C1829       C  0.48869772  0.82400250  0.29297918    -0.05600
C1830       C  0.48128817  0.82569302  0.27954915     0.21300
C1831       C  0.48064347  0.82171633  0.30598877     0.19400
C1832       C  0.48821199  0.82015028  0.31927728    -0.17100
C1833       C  0.50356860  0.82100448  0.31969825    -0.19300
C1834       C  0.51167642  0.82341277  0.30683430     0.20900
C1835       C  0.52710025  0.82457704  0.30714694    -0.32300
C1836       C  0.53506275  0.82716887  0.29417184     0.01600
C1837       C  0.52742429  0.82840768  0.28085675    -0.23700
C1838       C  0.46594906  0.82535477  0.27923273    -0.28300
C1839       C  0.45775703  0.82346133  0.29215807     0.07300
C1840       C  0.46519388  0.82137756  0.30549402    -0.26900
H1841       H  0.48378828  0.82935086  0.25627048     0.12000
H1842       H  0.51057248  0.83072795  0.25698924     0.13100
H1843       H  0.48224372  0.81839933  0.32938470     0.12200
H1844       H  0.50910299  0.81987184  0.33011902     0.11500
H1845       H  0.53286736  0.82362319  0.31746517     0.16900
H1846       H  0.53339548  0.83040042  0.27078692     0.12800
H1847       H  0.46036789  0.82689912  0.26888164     0.15600
H1848       H  0.45898344  0.81992237  0.31550860     0.15400
C1849       C  0.57955780  0.74885097  0.24543634    -0.17500
C1850       C  0.57997877  0.75972238  0.25625301    -0.19600
C1851       C  0.58587180  0.77358124  0.25317949     0.21000
C1852       C  0.59157659  0.77646364  0.23911855    -0.02600
C1853       C  0.59120846  0.76544916  0.22819860    -0.05600
C1854       C  0.58509257  0.75161511  0.23136983     0.21300
C1855       C  0.59679149  0.76833886  0.21408139     0.19400
C1856       C  0.60281952  0.78216080  0.21106992    -0.17100
C1857       C  0.60311677  0.79309449  0.22186559    -0.19300
C1858       C  0.59740761  0.79041522  0.23589174     0.20900
C1859       C  0.59709177  0.80151868  0.24662357    -0.32300
C1860       C  0.59108618  0.79881430  0.26057123     0.01600
C1861       C  0.58580305  0.78469989  0.26381913    -0.23700
C1862       C  0.58454840  0.74080572  0.22041987    -0.28300
C1863       C  0.59005850  0.74357894  0.20629183     0.07300
C1864       C  0.59616910  0.75739911  0.20321925    -0.26900
H1865       H  0.57483738  0.73828752  0.24806105     0.12000
H1866       H  0.57553967  0.75733581  0.26699297     0.13100
H1867       H  0.60720052  0.78456406  0.20031092     0.12200
H1868       H  0.60768457  0.80370962  0.21919080     0.11500
H1869       H  0.60123249  0.81232995  0.24402440     0.16900
H1870       H  0.58112893  0.78248364  0.27450358     0.12800
H1871       H  0.57975489  0.73023225  0.22289815     0.15600
H1872       H  0.60040305  0.75966360  0.19236610     0.15400
C1873       C  0.81438807  0.65528917  0.33137984    -0.17500
C1874       C  0.81356869  0.66583682  0.34248586    -0.19600
C1875       C  0.81549990  0.66188119  0.35718625     0.21000
C1876       C  0.81772386  0.64706693  0.36080087    -0.02600
C1877       C  0.81853829  0.63640290  0.34957477    -0.05600
C1878       C  0.81713196  0.64059618  0.33478333     0.21300
C1879       C  0.82118742  0.62163988  0.35312410     0.19400
C1880       C  0.82263511  0.61762666  0.36787616    -0.17100
C1881       C  0.82184602  0.62819529  0.37899753    -0.19300
C1882       C  0.81958963  0.64297793  0.37557570     0.20900
C1883       C  0.81964688  0.65380028  0.38658324    -0.32300
C1884       C  0.81813103  0.66867082  0.38294649     0.01600
C1885       C  0.81573472  0.67255441  0.36825850    -0.23700
C1886       C  0.81887854  0.63011238  0.32364155    -0.28300
C1887       C  0.82190677  0.61543744  0.32706375     0.07300
C1888       C  0.82273177  0.61123675  0.34185387    -0.26900
H1889       H  0.81315691  0.65867733  0.32009511     0.12000
H1890       H  0.81173481  0.67715290  0.33954440     0.13100
H1891       H  0.82462992  0.60633580  0.37080543     0.12200
H1892       H  0.82326161  0.62483637  0.39026864     0.11500
H1893       H  0.82148703  0.65071676  0.39787915     0.16900
H1894       H  0.81440549  0.68396736  0.36538403     0.12800
H1895       H  0.81811711  0.63342885  0.31228569     0.15600
H1896       H  0.82506800  0.59995769  0.34459230     0.15400
C1897       C  0.92074875  0.73179777  0.40687894    -0.17500
C1898       C  0.90531525  0.73200598  0.40698816    -0.19600
C1899       C  0.89721321  0.71958836  0.41121414     0.21000
C1900       C  0.90483610  0.70692416  0.41554960    -0.02600
C1901       C  0.92038036  0.70666369  0.41528344    -0.05600
C1902       C  0.92846001  0.71912670  0.41088826     0.21300
C1903       C  0.92781093  0.69382948  0.41932935     0.19400
C1904       C  0.91982494  0.68151745  0.42387848    -0.17100
C1905       C  0.90453754  0.68182457  0.42428736    -0.19300
C1906       C  0.89694091  0.69440938  0.42003539     0.20900
C1907       C  0.88157934  0.69454982  0.42004407    -0.32300
C1908       C  0.87375995  0.70693438  0.41541886     0.01600
C1909       C  0.88168790  0.71950517  0.41108579    -0.23700
C1910       C  0.94402216  0.71858493  0.41053405    -0.28300
C1911       C  0.95146720  0.70561480  0.41437280     0.07300
C1912       C  0.94311735  0.69339290  0.41876155    -0.26900
H1913       H  0.92665237  0.74152573  0.40351979     0.12000
H1914       H  0.89971135  0.74188560  0.40369483     0.13100
H1915       H  0.92541588  0.67159825  0.42708721     0.12200
H1916       H  0.89864133  0.67213913  0.42779248     0.11500
H1917       H  0.87568490  0.68482154  0.42345540     0.16900
H1918       H  0.87580930  0.72916251  0.40760763     0.12800
H1919       H  0.95026135  0.72811980  0.40721247     0.15600
H1920       H  0.94856215  0.68335986  0.42188348     0.15400
C1921       C  0.62051957  0.81790434  0.36669562    -0.17500
C1922       C  0.63170375  0.81694106  0.37721061    -0.19600
C1923       C  0.64611310  0.82132284  0.37386087     0.21000
C1924       C  0.64924218  0.82655509  0.35966881    -0.02600
C1925       C  0.63794119  0.82761947  0.34909294    -0.05600
C1926       C  0.62348275  0.82331043  0.35260753     0.21300
C1927       C  0.64113030  0.83309622  0.33502374     0.19400
C1928       C  0.65552400  0.83729604  0.33156241    -0.17100
C1929       C  0.66668363  0.83616401  0.34196315    -0.19300
C1930       C  0.66364845  0.83090189  0.35605715     0.20900
C1931       C  0.67475752  0.83020635  0.36664085    -0.32300
C1932       C  0.67176426  0.82544994  0.38098231     0.01600
C1933       C  0.65739003  0.82082374  0.38445997    -0.23700
C1934       C  0.61230932  0.82450087  0.34197889    -0.28300
C1935       C  0.61545459  0.82998414  0.32789765     0.07300
C1936       C  0.62991956  0.83428175  0.32460942    -0.26900
H1937       H  0.60951707  0.81449607  0.36962330     0.12000
H1938       H  0.62905214  0.81284750  0.38801175     0.13100
H1939       H  0.65815770  0.84149266  0.32079395     0.12200
H1940       H  0.67769079  0.83954419  0.33901486     0.11500
H1941       H  0.68573827  0.83375032  0.36376417     0.16900
H1942       H  0.65493480  0.81706920  0.39543428     0.12800
H1943       H  0.60121962  0.82115136  0.34465072     0.15600
H1944       H  0.63252297  0.83851760  0.31384265     0.15400
C1945       C  0.75183509  0.74194773  0.40704938    -0.17500
C1946       C  0.74148417  0.75322646  0.40683231    -0.19600
C1947       C  0.74595324  0.76786908  0.40539407     0.21000
C1948       C  0.76099249  0.77114194  0.40380434    -0.02600
C1949       C  0.77145987  0.75972877  0.40397780    -0.05600
C1950       C  0.76686532  0.74508149  0.40578815     0.21300
C1951       C  0.78652927  0.76301964  0.40269279     0.19400
C1952       C  0.79097222  0.77763814  0.40099593    -0.17100
C1953       C  0.78062261  0.78892803  0.40086123    -0.19300
C1954       C  0.76560684  0.78583350  0.40240052     0.20900
C1955       C  0.75517882  0.79717031  0.40294529    -0.32300
C1956       C  0.74017385  0.79402862  0.40499237     0.01600
C1957       C  0.73567747  0.77929200  0.40591957    -0.23700
C1958       C  0.77738283  0.73388528  0.40665876    -0.28300
C1959       C  0.79248197  0.73711162  0.40574666     0.07300
C1960       C  0.79691053  0.75170614  0.40349369    -0.26900
H1961       H  0.74808623  0.73077438  0.40840026     0.12000
H1962       H  0.72997551  0.75050558  0.40802381     0.13100
H1963       H  0.80249405  0.78037292  0.39997614     0.12200
H1964       H  0.78439248  0.80012007  0.39974442     0.11500
H1965       H  0.75879661  0.80844968  0.40220463     0.16900
H1966       H  0.72417322  0.77669932  0.40743872     0.12800
H1967       H  0.77381557  0.72269963  0.40838032     0.15600
H1968       H  0.80848412  0.75434224  0.40279933     0.15400
C1969       C  0.73009817  0.92295100  0.39179580    -0.17500
C1970       C  0.72985282  0.90759801  0.39148713    -0.19600
C1971       C  0.72488900  0.89961176  0.40365110     0.21000
C1972       C  0.72066486  0.90722496  0.41644918    -0.02600
C1973       C  0.72096267  0.92271926  0.41677849    -0.05600
C1974       C  0.72541194  0.93065250  0.40428516     0.21300
C1975       C  0.71619506  0.93025499  0.42940593     0.19400
C1976       C  0.71175939  0.92231905  0.44177532    -0.17100
C1977       C  0.71145901  0.90702603  0.44144741    -0.19300
C1978       C  0.71559999  0.89939016  0.42874763     0.20900
C1979       C  0.71427096  0.88410101  0.42799604    -0.32300
C1980       C  0.71790452  0.87639889  0.41511290     0.01600
C1981       C  0.72359143  0.88422346  0.40309365    -0.23700
C1982       C  0.72438410  0.94606614  0.40427339    -0.28300
C1983       C  0.71874351  0.95356238  0.41654242     0.07300
C1984       C  0.71522189  0.94555894  0.42922704    -0.26900
H1985       H  0.73362098  0.92880822  0.38211559     0.12000
H1986       H  0.73322410  0.90197351  0.38158541     0.13100
H1987       H  0.70813733  0.92794998  0.45158751     0.12200
H1988       H  0.70764319  0.90117484  0.45102378     0.11500
H1989       H  0.71004390  0.87820874  0.43738346     0.16900
H1990       H  0.72647752  0.87841306  0.39313974     0.12800
H1991       H  0.72709073  0.95210754  0.39444329     0.15600
H1992       H  0.71098362  0.95120874  0.43878792     0.15400
C1993       C  0.48523234  0.02106665  0.27825240    -0.17500
C1994       C  0.50049779  0.02186723  0.27898343    -0.19600
C1995       C  0.50792865  0.01676995  0.29137995     0.21000
C1996       C  0.49990570  0.01132842  0.30340355    -0.02600
C1997       C  0.48449166  0.01047240  0.30264920    -0.05600
C1998       C  0.47717386  0.01512650  0.28989301     0.21300
C1999       C  0.47646759  0.00442928  0.31439528     0.19400
C2000       C  0.48387956  0.99986892  0.32701782    -0.17100
C2001       C  0.49915917  0.00075535  0.32775162    -0.19300
C2002       C  0.50730300  0.00617516  0.31591873     0.20900
C2003       C  0.52268622  0.00594740  0.31608046    -0.32300
C2004       C  0.53070014  0.01061316  0.30378333     0.01600
C2005       C  0.52324992  0.01644094  0.29167682    -0.23700
C2006       C  0.46199289  0.01325415  0.28875759    -0.28300
C2007       C  0.45402762  0.00660176  0.30012869     0.07300
C2008       C  0.46125952  0.00256466  0.31308076    -0.26900
H2009       H  0.47975504  0.02475539  0.26842391     0.12000
H2010       H  0.50651827  0.02614643  0.26969820     0.13100
H2011       H  0.47789230  0.99529566  0.33618042     0.12200
H2012       H  0.50465007  0.99683001  0.33747436     0.11500
H2013       H  0.52837899  0.00150083  0.32547202     0.16900
H2014       H  0.52936208  0.02020216  0.28221540     0.12800
H2015       H  0.45646445  0.01652851  0.27879697     0.15600
H2016       H  0.45514295  0.99755114  0.32193417     0.15400
C2017       C  0.55333173  0.91053555  0.28676809    -0.17500
C2018       C  0.55249497  0.92578278  0.28620368    -0.19600
C2019       C  0.56517364  0.93421862  0.28397674     0.21000
C2020       C  0.57880373  0.92723391  0.28200266    -0.02600
C2021       C  0.57963874  0.91180537  0.28249969    -0.05600
C2022       C  0.56685375  0.90346282  0.28507116     0.21300
C2023       C  0.59328430  0.90475645  0.28075407     0.19400
C2024       C  0.60595291  0.91324352  0.27851638    -0.17100
C2025       C  0.60514519  0.92854936  0.27816451    -0.19300
C2026       C  0.59163719  0.93566496  0.27993735     0.20900
C2027       C  0.59079225  0.95103642  0.28021643    -0.32300
C2028       C  0.57729735  0.95802984  0.28272748     0.01600
C2029       C  0.56451242  0.94952140  0.28424858    -0.23700
C2030       C  0.56783383  0.88821423  0.28621375    -0.28300
C2031       C  0.58137321  0.88108322  0.28461802     0.07300
C2032       C  0.59403631  0.88939253  0.28161240    -0.26900
H2033       H  0.54341408  0.90427535  0.28870863     0.12000
H2034       H  0.54195277  0.93099227  0.28774943     0.13100
H2035       H  0.61653131  0.90804652  0.27721926     0.12200
H2036       H  0.61512149  0.93483034  0.27663729     0.11500
H2037       H  0.60072744  0.95751250  0.27929828     0.16900
H2038       H  0.55408913  0.95482114  0.28629270     0.12800
H2039       H  0.55803030  0.88185905  0.28845844     0.15600
H2040       H  0.60451858  0.88395429  0.28048770     0.15400
C2041       C  0.62443920  0.99769957  0.38401773    -0.17500
C2042       C  0.61305751  0.99773879  0.37378323    -0.19600
C2043       C  0.61558379  0.99315535  0.35933116     0.21000
C2044       C  0.62954918  0.98788607  0.35528777    -0.02600
C2045       C  0.64101514  0.98779127  0.36562794    -0.05600
C2046       C  0.63850923  0.99301583  0.37997276     0.21300
C2047       C  0.65511044  0.98301412  0.36145003     0.19400
C2048       C  0.65746575  0.97780353  0.34716660    -0.17100
C2049       C  0.64611295  0.97796113  0.33689264    -0.19300
C2050       C  0.63222970  0.98330109  0.34076427     0.20900
C2051       C  0.62118341  0.98476307  0.33023647    -0.32300
C2052       C  0.60751509  0.99076726  0.33405059     0.01600
C2053       C  0.60459749  0.99440092  0.34870886    -0.23700
C2054       C  0.65021640  0.99393209  0.38987008    -0.28300
C2055       C  0.66442093  0.98979772  0.38557973     0.07300
C2056       C  0.66670782  0.98401705  0.37146507    -0.26900
H2057       H  0.62231645  0.00164723  0.39501585     0.12000
H2058       H  0.60237760  0.00173596  0.37707184     0.13100
H2059       H  0.66819201  0.97397215  0.34382963     0.12200
H2060       H  0.64829983  0.97427224  0.32581659     0.11500
H2061       H  0.62341723  0.98174100  0.31896247     0.16900
H2062       H  0.59404521  0.99894068  0.35170798     0.12800
H2063       H  0.64835703  0.99833182  0.40075186     0.15600
H2064       H  0.67760614  0.98068603  0.36812111     0.15400
C2065       C  0.73571889  0.58616653  0.07866030    -0.17500
C2066       C  0.73585619  0.58621516  0.09402870    -0.19600
C2067       C  0.72345171  0.59064702  0.10202341     0.21000
C2068       C  0.71082734  0.59518493  0.09438549    -0.02600
C2069       C  0.71068135  0.59511887  0.07889255    -0.05600
C2070       C  0.72317222  0.59053986  0.07095660     0.21300
C2071       C  0.69789557  0.59931790  0.07136776     0.19400
C2072       C  0.68546921  0.60371621  0.07927187    -0.17100
C2073       C  0.68563188  0.60382567  0.09456408    -0.19300
C2074       C  0.69820943  0.59949975  0.10221712     0.20900
C2075       C  0.69821031  0.59906949  0.11756315    -0.32300
C2076       C  0.71058551  0.59425027  0.12534926     0.01600
C2077       C  0.72328980  0.59028383  0.11747814    -0.23700
C2078       C  0.72269288  0.58997760  0.05552126    -0.28300
C2079       C  0.70976271  0.59368857  0.04805251     0.07300
C2080       C  0.69756136  0.59863298  0.05607674    -0.26900
H2081       H  0.74538926  0.58254879  0.07280018     0.12000
H2082       H  0.74564095  0.58264331  0.09967138     0.13100
H2083       H  0.67555502  0.60692518  0.07362292     0.12200
H2084       H  0.67584337  0.60713159  0.10041631     0.11500
H2085       H  0.68837005  0.60216029  0.12346079     0.16900
H2086       H  0.73285297  0.58646291  0.12333927     0.12800
H2087       H  0.73206006  0.58598257  0.04940926     0.15600
H2088       H  0.68755447  0.60153768  0.05039914     0.15400
C2089       C  0.49476561  0.67492933  0.99228218    -0.17500
C2090       C  0.51002983  0.67561284  0.99365274    -0.19600
C2091       C  0.51755371  0.68877249  0.99105090     0.21000
C2092       C  0.50967167  0.70122737  0.98654170    -0.02600
C2093       C  0.49431166  0.70053327  0.98514117    -0.05600
C2094       C  0.48679520  0.68739795  0.98830790     0.21300
C2095       C  0.48643702  0.71316159  0.98115751     0.19400
C2096       C  0.49396919  0.72617901  0.97805024    -0.17100
C2097       C  0.50918511  0.72686466  0.97943246    -0.19300
C2098       C  0.51707059  0.71453871  0.98391831     0.20900
C2099       C  0.53217792  0.71543599  0.98620996    -0.32300
C2100       C  0.54005114  0.70323534  0.99111629     0.01600
C2101       C  0.53274503  0.68983751  0.99325249    -0.23700
C2102       C  0.47142773  0.68718793  0.98814492    -0.28300
C2103       C  0.46356255  0.70001094  0.98508593     0.07300
C2104       C  0.47113106  0.71277576  0.98104770    -0.26900
H2105       H  0.48916305  0.66474503  0.99468363     0.12000
H2106       H  0.51591745  0.66593085  0.99704226     0.13100
H2107       H  0.48805756  0.73593459  0.97491514     0.12200
H2108       H  0.51475561  0.73712718  0.97729648     0.11500
H2109       H  0.53777383  0.72576053  0.98441884     0.16900
H2110       H  0.53879006  0.68038342  0.99700849     0.12800
H2111       H  0.46561955  0.67728283  0.99117128     0.15600
H2112       H  0.46511280  0.72265179  0.97851456     0.15400
C2113       C  0.61059331  0.73117607  0.09408100    -0.17500
C2114       C  0.61016679  0.73199186  0.07872674    -0.19600
C2115       C  0.59800929  0.72662540  0.07089346     0.21000
C2116       C  0.58611991  0.72051079  0.07871520    -0.02600
C2117       C  0.58660964  0.71955941  0.09416323    -0.05600
C2118       C  0.59891285  0.72488977  0.10192825     0.21300
C2119       C  0.57484216  0.71305483  0.10180215     0.19400
C2120       C  0.56261590  0.70781889  0.09408554    -0.17100
C2121       C  0.56209610  0.70883691  0.07886003    -0.19300
C2122       C  0.57382256  0.71504519  0.07109372     0.20900
C2123       C  0.57359091  0.71542935  0.05579754    -0.32300
C2124       C  0.58557111  0.72093032  0.04777695     0.01600
C2125       C  0.59766551  0.72683285  0.05541391    -0.23700
C2126       C  0.59934215  0.72363205  0.11733347    -0.28300
C2127       C  0.58770934  0.71685179  0.12492205     0.07300
C2128       C  0.57550947  0.71170946  0.11702268    -0.26900
H2129       H  0.62014492  0.73532595  0.09980863     0.12000
H2130       H  0.61941662  0.73671756  0.07296740     0.13100
H2131       H  0.55348930  0.70282514  0.09982309     0.12200
H2132       H  0.55258955  0.70457547  0.07313231     0.11500
H2133       H  0.56419470  0.71088905  0.05008198     0.16900
H2134       H  0.60700414  0.73098063  0.04935239     0.12800
H2135       H  0.60879522  0.72761315  0.12334527     0.15600
H2136       H  0.56643212  0.70660135  0.12275559     0.15400
C2137       C  0.61688816  0.63210131  0.00154315    -0.17500
C2138       C  0.62721624  0.62085434  0.00051693    -0.19600
C2139       C  0.64227737  0.62406353  0.00066326     0.21000
C2140       C  0.64696876  0.63874673  0.00195067    -0.02600
C2141       C  0.63657452  0.65005872  0.00308158    -0.05600
C2142       C  0.62145431  0.64673462  0.00279382     0.21300
C2143       C  0.64133508  0.66470744  0.00438298     0.19400
C2144       C  0.65636685  0.66794546  0.00459111    -0.17100
C2145       C  0.66665741  0.65674876  0.00344310    -0.19300
C2146       C  0.66206062  0.64215472  0.00209117     0.20900
C2147       C  0.67233374  0.63091907  0.00097635    -0.32300
C2148       C  0.66779837  0.61625558  0.99983986     0.01600
C2149       C  0.65274278  0.61288014  0.99963754    -0.23700
C2150       C  0.61120513  0.65812642  0.00355443    -0.28300
C2151       C  0.61593454  0.67275244  0.00463297     0.07300
C2152       C  0.63100146  0.67591364  0.00523555    -0.26900
H2153       H  0.60532577  0.62935660  0.00131590     0.12000
H2154       H  0.62342209  0.60964663  0.99956182     0.13100
H2155       H  0.66016623  0.67915121  0.00557114     0.12200
H2156       H  0.67821974  0.65950555  0.00359977     0.11500
H2157       H  0.68391580  0.63361236  0.00123894     0.16900
H2158       H  0.64918250  0.60157910  0.99884417     0.12800
H2159       H  0.59958865  0.65563107  0.00307693     0.15600
H2160       H  0.63473433  0.68716322  0.00602276     0.15400
C2161       C  0.91934468  0.25641616  0.42213892    -0.17500
C2162       C  0.90405541  0.25769732  0.42238229    -0.19600
C2163       C  0.89682267  0.26647647  0.41210963     0.21000
C2164       C  0.90502696  0.27358679  0.40112363    -0.02600
C2165       C  0.92047252  0.27222963  0.40083218    -0.05600
C2166       C  0.92769172  0.26385472  0.41158886     0.21300
C2167       C  0.92872310  0.27986018  0.39024327     0.19400
C2168       C  0.92145267  0.28822658  0.37964955    -0.17100
C2169       C  0.90617135  0.28958893  0.37995350    -0.19300
C2170       C  0.89787973  0.28258534  0.39084239     0.20900
C2171       C  0.88268034  0.28489458  0.39200281    -0.32300
C2172       C  0.87451480  0.27828632  0.40329423     0.01600
C2173       C  0.88162756  0.26874759  0.41302094    -0.23700
C2174       C  0.94311539  0.26377774  0.41213711    -0.28300
C2175       C  0.95139106  0.27221278  0.40224523     0.07300
C2176       C  0.94409775  0.27971726  0.39096348    -0.26900
H2177       H  0.92467227  0.24991377  0.43046032     0.12000
H2178       H  0.89791467  0.25212365  0.43086566     0.13100
H2179       H  0.92762486  0.29409518  0.37139051     0.12200
H2180       H  0.90087537  0.29644688  0.37190270     0.11500
H2181       H  0.87729670  0.29219668  0.38440634     0.16900
H2182       H  0.87545220  0.26360612  0.42175749     0.12800
H2183       H  0.94861090  0.25805408  0.42092239     0.15600
H2184       H  0.95037231  0.28622457  0.38326787     0.15400
C2185       C  0.75710007  0.25113168  0.42285911    -0.17500
C2186       C  0.74625627  0.24025500  0.42274404    -0.19600
C2187       C  0.74915911  0.22639136  0.41675792     0.21000
C2188       C  0.76313932  0.22348868  0.41080166    -0.02600
C2189       C  0.77409309  0.23449312  0.41089300    -0.05600
C2190       C  0.77104637  0.24835808  0.41698006     0.21300
C2191       C  0.78807864  0.23160905  0.40492122     0.19400
C2192       C  0.79096640  0.21774687  0.39892942    -0.17100
C2193       C  0.78013799  0.20684148  0.39887653    -0.19300
C2194       C  0.76619314  0.20959100  0.40477579     0.20900
C2195       C  0.75527546  0.19868743  0.40475731    -0.32300
C2196       C  0.74128879  0.20146972  0.41065035     0.01600
C2197       C  0.73834652  0.21538561  0.41664682    -0.23700
C2198       C  0.78198533  0.25920286  0.41711498    -0.28300
C2199       C  0.79597953  0.25645520  0.41120441     0.07300
C2200       C  0.79892080  0.24260877  0.40508562    -0.26900
H2201       H  0.75457428  0.26172672  0.42756542     0.12000
H2202       H  0.73559062  0.24268650  0.42736167     0.13100
H2203       H  0.80162678  0.21532081  0.39429820     0.12200
H2204       H  0.78267804  0.19623639  0.39420401     0.11500
H2205       H  0.75769191  0.18800808  0.40017718     0.16900
H2206       H  0.72764338  0.21765289  0.42127736     0.12800
H2207       H  0.77957731  0.26982046  0.42184642     0.15600
H2208       H  0.80965454  0.24036791  0.40051536     0.15400
C2209       C  0.69102945  0.07441657  0.38835368    -0.17500
C2210       C  0.69121421  0.08968884  0.38871162    -0.19600
C2211       C  0.70301491  0.09723350  0.39508708     0.21000
C2212       C  0.71499540  0.08933928  0.40074320    -0.02600
C2213       C  0.71476938  0.07386043  0.40045677    -0.05600
C2214       C  0.70262939  0.06642555  0.39439378     0.21300
C2215       C  0.72640403  0.06584640  0.40667497     0.19400
C2216       C  0.73839601  0.07347224  0.41268165    -0.17100
C2217       C  0.73867639  0.08883132  0.41286256    -0.19300
C2218       C  0.72692839  0.09688892  0.40712764     0.20900
C2219       C  0.72660291  0.11229245  0.40813923    -0.32300
C2220       C  0.71430738  0.12012183  0.40317376     0.01600
C2221       C  0.70274796  0.11250356  0.39637640    -0.23700
C2222       C  0.70197495  0.05113940  0.39494460    -0.28300
C2223       C  0.71314515  0.04300053  0.40168641     0.07300
C2224       C  0.72554117  0.05042180  0.40724261    -0.26900
H2225       H  0.68164495  0.06884432  0.38363027     0.12000
H2226       H  0.68197193  0.09560069  0.38425977     0.13100
H2227       H  0.74745972  0.06755652  0.41747258     0.12200
H2228       H  0.74795201  0.09440760  0.41778585     0.11500
H2229       H  0.73553415  0.11810032  0.41343187     0.16900
H2230       H  0.69331100  0.11847121  0.39240341     0.12800
H2231       H  0.69237383  0.04559200  0.39062509     0.15600
H2232       H  0.73414802  0.04428757  0.41257587     0.15400
C2233       C  0.85124960  0.50484880  0.27865477    -0.17500
C2234       C  0.85084100  0.48957520  0.27877359    -0.19600
C2235       C  0.84232009  0.48211585  0.28915407     0.21000
C2236       C  0.83434940  0.49009120  0.29972192    -0.02600
C2237       C  0.83486146  0.50555766  0.29967805    -0.05600
C2238       C  0.84320176  0.51292719  0.28895882     0.21300
C2239       C  0.82680965  0.51363201  0.31013440     0.19400
C2240       C  0.81845402  0.50610854  0.32064189    -0.17100
C2241       C  0.81784699  0.49076746  0.32060637    -0.19300
C2242       C  0.82566745  0.48263313  0.31012720     0.20900
C2243       C  0.82479322  0.46722545  0.30968261    -0.32300
C2244       C  0.83255557  0.45923819  0.29897936     0.01600
C2245       C  0.84144266  0.46682399  0.28892483    -0.23700
C2246       C  0.84310606  0.52824116  0.28847984    -0.28300
C2247       C  0.83485153  0.53642137  0.29859835     0.07300
C2248       C  0.82697684  0.52904589  0.30963186    -0.26900
H2249       H  0.85774347  0.51035151  0.27038701     0.12000
H2250       H  0.85704114  0.48359087  0.27060299     0.13100
H2251       H  0.81220465  0.51209781  0.32876788     0.12200
H2252       H  0.81115174  0.48526606  0.32871107     0.11500
H2253       H  0.81792401  0.46149429  0.31748447     0.16900
H2254       H  0.84749064  0.46082708  0.28064070     0.12800
H2255       H  0.84931744  0.53380892  0.28003155     0.15600
H2256       H  0.82059156  0.53526267  0.31748309     0.15400
C2257       C  0.81285277  0.32911631  0.34104442    -0.17500
C2258       C  0.81265370  0.33994832  0.33026401    -0.19600
C2259       C  0.81399348  0.35477643  0.33411190     0.21000
C2260       C  0.81496981  0.35876875  0.34901622    -0.02600
C2261       C  0.81521621  0.34781420  0.35991404    -0.05600
C2262       C  0.81442857  0.33291367  0.35586777     0.21300
C2263       C  0.81684436  0.35175246  0.37478291     0.19400
C2264       C  0.81746787  0.36661831  0.37867220    -0.17100
C2265       C  0.81718914  0.37746713  0.36788271    -0.19300
C2266       C  0.81629600  0.37365513  0.35299631     0.20900
C2267       C  0.81729006  0.38438698  0.34201599    -0.32300
C2268       C  0.81705299  0.38041057  0.32709460     0.01600
C2269       C  0.81495299  0.36560423  0.32328657    -0.23700
C2270       C  0.81581117  0.32206851  0.36662810    -0.28300
C2271       C  0.81827819  0.32588871  0.38137356     0.07300
C2272       C  0.81839118  0.34077082  0.38541018    -0.26900
H2273       H  0.81214759  0.31773704  0.33774733     0.12000
H2274       H  0.81180113  0.33669813  0.31887394     0.13100
H2275       H  0.81855853  0.36985394  0.39004554     0.12200
H2276       H  0.81807027  0.38883711  0.37116745     0.11500
H2277       H  0.81879460  0.39575844  0.34508620     0.16900
H2278       H  0.81464352  0.36240437  0.31184932     0.12800
H2279       H  0.81561459  0.31064209  0.36341014     0.15600
H2280       H  0.82009762  0.34381825  0.39676514     0.15400
C2281       C  0.91973280  0.37848955  0.30106901    -0.17500
C2282       C  0.90448795  0.37984323  0.30181876    -0.19600
C2283       C  0.89704680  0.38909967  0.29214954     0.21000
C2284       C  0.90500311  0.39670917  0.28129535    -0.02600
C2285       C  0.92043897  0.39538063  0.28057092    -0.05600
C2286       C  0.92781518  0.38640669  0.29067057     0.21300
C2287       C  0.92852402  0.40348998  0.27016899     0.19400
C2288       C  0.92100376  0.41244548  0.26025064    -0.17100
C2289       C  0.90569722  0.41367828  0.26089570    -0.19300
C2290       C  0.89760500  0.40602617  0.27150995     0.20900
C2291       C  0.88233340  0.40785193  0.27281051    -0.32300
C2292       C  0.87442049  0.40071065  0.28396877     0.01600
C2293       C  0.88186063  0.39119234  0.29344281    -0.23700
C2294       C  0.94317577  0.38610463  0.29074993    -0.28300
C2295       C  0.95138258  0.39486570  0.28107618     0.07300
C2296       C  0.94397569  0.40309865  0.27040837    -0.26900
H2297       H  0.92524418  0.37152887  0.30888459     0.12000
H2298       H  0.89854315  0.37386366  0.31016284     0.13100
H2299       H  0.92698963  0.41874801  0.25217989     0.12200
H2300       H  0.90021320  0.42086695  0.25327317     0.11500
H2301       H  0.87670383  0.41526011  0.26550200     0.16900
H2302       H  0.87585620  0.38559402  0.30201717     0.12800
H2303       H  0.94876616  0.37970424  0.29899311     0.15600
H2304       H  0.95018814  0.40998222  0.26300060     0.15400
C2305       C  0.71525210  0.49266933  0.14836500    -0.17500
C2306       C  0.71502148  0.50794012  0.14862002    -0.19600
C2307       C  0.70607232  0.51542366  0.15862007     0.21000
C2308       C  0.69700774  0.50746638  0.16827139    -0.02600
C2309       C  0.69718446  0.49197312  0.16795969    -0.05600
C2310       C  0.70648591  0.48459842  0.15805951     0.21300
C2311       C  0.68829604  0.48388447  0.17769342     0.19400
C2312       C  0.67913223  0.49145622  0.18750335    -0.17100
C2313       C  0.67901248  0.50682816  0.18786364    -0.19300
C2314       C  0.68801774  0.51497250  0.17838786     0.20900
C2315       C  0.68846860  0.53042455  0.17901472    -0.32300
C2316       C  0.69783426  0.53838342  0.16963195     0.01600
C2317       C  0.70634446  0.53072470  0.15930935    -0.23700
C2318       C  0.70709501  0.46928371  0.15813515    -0.28300
C2319       C  0.69853750  0.46102702  0.16794298     0.07300
C2320       C  0.68896712  0.46842833  0.17758911    -0.26900
H2321       H  0.72241665  0.48716114  0.14066372     0.12000
H2322       H  0.72201844  0.51390787  0.14111683     0.13100
H2323       H  0.67218179  0.48548547  0.19504196     0.12200
H2324       H  0.67198178  0.51234614  0.19567779     0.11500
H2325       H  0.68182929  0.53619945  0.18699032     0.16900
H2326       H  0.71352474  0.53667984  0.15195925     0.12800
H2327       H  0.71445190  0.46377509  0.15060787     0.15600
H2328       H  0.68232002  0.46220769  0.18520211     0.15400
C2329       C  0.78971853  0.39694738  0.21904866    -0.17500
C2330       C  0.77900868  0.39706783  0.20803800    -0.19600
C2331       C  0.76492430  0.40257722  0.21087724     0.21000
C2332       C  0.76162314  0.40793356  0.22502053    -0.02600
C2333       C  0.77244446  0.40783884  0.23612982    -0.05600
C2334       C  0.78657668  0.40234794  0.23312661     0.21300
C2335       C  0.76914136  0.41336890  0.25019789     0.19400
C2336       C  0.75505267  0.41877773  0.25309475    -0.17100
C2337       C  0.74435620  0.41884378  0.24213102    -0.19300
C2338       C  0.74754454  0.41351937  0.22805198     0.20900
C2339       C  0.73691982  0.41383240  0.21694648    -0.32300
C2340       C  0.74008559  0.40867110  0.20274434     0.01600
C2341       C  0.75413594  0.40296156  0.19982732    -0.23700
C2342       C  0.79732669  0.40249453  0.24419927    -0.28300
C2343       C  0.79416590  0.40819159  0.25821319     0.07300
C2344       C  0.77999619  0.41353680  0.26109454    -0.26900
H2345       H  0.80050083  0.39269079  0.21652131     0.12000
H2346       H  0.78177157  0.39290167  0.19726557     0.13100
H2347       H  0.75231901  0.42303851  0.26383933     0.12200
H2348       H  0.73359212  0.42315392  0.24464793     0.11500
H2349       H  0.72617015  0.41825004  0.21935914     0.16900
H2350       H  0.75672342  0.39896833  0.18894156     0.12800
H2351       H  0.80820960  0.39838722  0.24183772     0.15600
H2352       H  0.77741238  0.41791777  0.27183498     0.15400
C2353       C  0.49188839  0.14755012  0.27728626    -0.17500
C2354       C  0.50719773  0.14806070  0.27727115    -0.19600
C2355       C  0.51469084  0.15834030  0.28595063     0.21000
C2356       C  0.50669728  0.16817149  0.29479444    -0.02600
C2357       C  0.49120263  0.16763850  0.29482921    -0.05600
C2358       C  0.48380925  0.15730601  0.28598507     0.21300
C2359       C  0.48312637  0.17750242  0.30359119     0.19400
C2360       C  0.49066631  0.18777646  0.31226494    -0.17100
C2361       C  0.50603290  0.18831829  0.31221405    -0.19300
C2362       C  0.51417207  0.17857509  0.30351517     0.20900
C2363       C  0.52961873  0.17906690  0.30332199    -0.32300
C2364       C  0.53765164  0.16929219  0.29448530     0.01600
C2365       C  0.53004070  0.15897179  0.28585981    -0.23700
C2366       C  0.46846290  0.15699726  0.28582222    -0.28300
C2367       C  0.46027196  0.16688228  0.29435168     0.07300
C2368       C  0.46768758  0.17702775  0.30335040    -0.26900
H2369       H  0.48636036  0.13955611  0.27043363     0.12000
H2370       H  0.51318500  0.14043748  0.27041990     0.13100
H2371       H  0.48467334  0.19545392  0.31904678     0.12200
H2372       H  0.51155669  0.19639164  0.31897151     0.11500
H2373       H  0.53536618  0.18709782  0.30995083     0.16900
H2374       H  0.53607939  0.15139194  0.27899443     0.12800
H2375       H  0.46288283  0.14911525  0.27887141     0.15600
H2376       H  0.46146985  0.18470881  0.30993034     0.15400
C2377       C  0.63276435  0.17242492  0.37650627    -0.17500
C2378       C  0.62187375  0.17304546  0.36573123    -0.19600
C2379       C  0.62559895  0.17541680  0.35101195     0.21000
C2380       C  0.64046812  0.17736001  0.34715353    -0.02600
C2381       C  0.65148521  0.17674431  0.35805775    -0.05600
C2382       C  0.64760495  0.17418557  0.37279132     0.21300
C2383       C  0.66637343  0.17846809  0.35418360     0.19400
C2384       C  0.67008313  0.18100789  0.33947542    -0.17100
C2385       C  0.65918642  0.18159943  0.32868494    -0.19300
C2386       C  0.64435630  0.17965825  0.33238008     0.20900
C2387       C  0.63339711  0.17964798  0.32153900    -0.32300
C2388       C  0.61855218  0.17739394  0.32524567     0.01600
C2389       C  0.61475121  0.17554541  0.34006972    -0.23700
C2390       C  0.65861581  0.17324502  0.38352494    -0.28300
C2391       C  0.67352823  0.17474234  0.37977228     0.07300
C2392       C  0.67728144  0.17743653  0.36503851    -0.26900
H2393       H  0.62957431  0.17045599  0.38775885     0.12000
H2394       H  0.61052412  0.17152350  0.36890348     0.13100
H2395       H  0.68144357  0.18240454  0.33628586     0.12200
H2396       H  0.66238322  0.18341973  0.31740806     0.11500
H2397       H  0.63647005  0.18110536  0.31016866     0.16900
H2398       H  0.60338596  0.17374377  0.34305738     0.12800
H2399       H  0.65557027  0.17109656  0.39478925     0.15600
H2400       H  0.68871072  0.17858023  0.36198016     0.15400
C2401       C  0.60550251  0.07806793  0.31024138    -0.17500
C2402       C  0.60596542  0.09331464  0.30960280    -0.19600
C2403       C  0.59988769  0.10068604  0.29763904     0.21000
C2404       C  0.59364928  0.09264255  0.28597470    -0.02600
C2405       C  0.59321606  0.07721627  0.28659988    -0.05600
C2406       C  0.59897791  0.06995880  0.29890789     0.21300
C2407       C  0.58657875  0.06909742  0.27518551     0.19400
C2408       C  0.58069075  0.07652415  0.26312525    -0.17100
C2409       C  0.58110995  0.09184120  0.26251047    -0.19300
C2410       C  0.58743847  0.10001817  0.27393905     0.20900
C2411       C  0.58725940  0.11541387  0.27381167    -0.32300
C2412       C  0.59298104  0.12342501  0.28570729     0.01600
C2413       C  0.59951881  0.11597067  0.29740629    -0.23700
C2414       C  0.59759787  0.05476243  0.29998221    -0.28300
C2415       C  0.59052638  0.04662557  0.28895732     0.07300
C2416       C  0.58542587  0.05377913  0.27635475    -0.26900
H2417       H  0.60999693  0.07262748  0.31974187     0.12000
H2418       H  0.61082372  0.09935833  0.31861433     0.13100
H2419       H  0.57552505  0.07049603  0.25427872     0.12200
H2420       H  0.57627222  0.09730251  0.25319509     0.11500
H2421       H  0.58211684  0.12112315  0.26480660     0.16900
H2422       H  0.60401074  0.12209372  0.30656567     0.12800
H2423       H  0.60157267  0.04928659  0.30970572     0.15600
H2424       H  0.57981998  0.04755823  0.26790862     0.15400
C2425       C  0.48997113  0.28211968  0.14455382    -0.17500
C2426       C  0.50527760  0.28207134  0.14448043    -0.19600
C2427       C  0.51316081  0.28976546  0.15522483     0.21000
C2428       C  0.50556364  0.29758391  0.16618803    -0.02600
C2429       C  0.49005029  0.29759072  0.16629297    -0.05600
C2430       C  0.48227467  0.28982981  0.15539668     0.21300
C2431       C  0.48233951  0.30522593  0.17733090     0.19400
C2432       C  0.49029156  0.31285541  0.18812068    -0.17100
C2433       C  0.50568444  0.31289073  0.18798681    -0.19300
C2434       C  0.51345260  0.30526561  0.17708425     0.20900
C2435       C  0.52892413  0.30500082  0.17695876    -0.32300
C2436       C  0.53655014  0.29706829  0.16610071     0.01600
C2437       C  0.52851236  0.28960087  0.15524120    -0.23700
C2438       C  0.46693055  0.28971319  0.15558765    -0.28300
C2439       C  0.45906406  0.29707823  0.16661894     0.07300
C2440       C  0.46686150  0.30491996  0.17744497    -0.26900
H2441       H  0.48414253  0.27606033  0.13614748     0.12000
H2442       H  0.51095951  0.27597603  0.13601924     0.13100
H2443       H  0.48460406  0.31876832  0.19670374     0.12200
H2444       H  0.51151781  0.31883216  0.19646964     0.11500
H2445       H  0.53499613  0.31072765  0.18542723     0.16900
H2446       H  0.53421782  0.28341953  0.14684978     0.12800
H2447       H  0.46109624  0.28359032  0.14722231     0.15600
H2448       H  0.46092213  0.31057292  0.18603847     0.15400
C2449       C  0.57854724  0.24155641  0.25107255    -0.17500
C2450       C  0.57780192  0.25191576  0.23990123    -0.19600
C2451       C  0.58384031  0.24892900  0.22608050     0.21000
C2452       C  0.59079263  0.23540346  0.22349411    -0.02600
C2453       C  0.59148358  0.22488886  0.23477965    -0.05600
C2454       C  0.58527811  0.22800249  0.24859432     0.21300
C2455       C  0.59816171  0.21121311  0.23218192     0.19400
C2456       C  0.60433586  0.20831640  0.21837942    -0.17100
C2457       C  0.60372983  0.21878195  0.20721195    -0.19300
C2458       C  0.59689836  0.23233416  0.20961170     0.20900
C2459       C  0.59596651  0.24283236  0.19839246    -0.32300
C2460       C  0.58896084  0.25633096  0.20090116     0.01600
C2461       C  0.58296021  0.25923803  0.21480819    -0.23700
C2462       C  0.58559253  0.21741463  0.25961808    -0.28300
C2463       C  0.59179204  0.20358205  0.25703519     0.07300
C2464       C  0.59825721  0.20061310  0.24333105    -0.26900
H2465       H  0.57371953  0.24409523  0.26162199     0.12000
H2466       H  0.57243993  0.26225967  0.24205838     0.13100
H2467       H  0.60953884  0.19790183  0.21617716     0.12200
H2468       H  0.60850883  0.21622379  0.19664787     0.11500
H2469       H  0.60061789  0.24047453  0.18772061     0.16900
H2470       H  0.57753636  0.26957190  0.21688897     0.12800
H2471       H  0.58058570  0.21982989  0.27011988     0.15600
H2472       H  0.60309008  0.18999157  0.24125148     0.15400
C2473       C  0.63112699  0.37630858  0.17598845    -0.17500
C2474       C  0.62026261  0.36543204  0.17569267    -0.19600
C2475       C  0.62406878  0.35056680  0.17598115     0.21000
C2476       C  0.63900275  0.34665459  0.17679269    -0.02600
C2477       C  0.64999448  0.35765656  0.17704458    -0.05600
C2478       C  0.64603137  0.37255435  0.17654232     0.21300
C2479       C  0.66493783  0.35373666  0.17750421     0.19400
C2480       C  0.66874060  0.33886962  0.17798646    -0.17100
C2481       C  0.65787319  0.32799362  0.17778588    -0.19300
C2482       C  0.64297809  0.33175685  0.17707037     0.20900
C2483       C  0.63203093  0.32088910  0.17633724    -0.32300
C2484       C  0.61710440  0.32466385  0.17519600     0.01600
C2485       C  0.61323457  0.33957071  0.17519293    -0.23700
C2486       C  0.65702044  0.38341761  0.17626288    -0.28300
C2487       C  0.67198276  0.37962764  0.17631034     0.07300
C2488       C  0.67580899  0.36471783  0.17714751    -0.26900
H2489       H  0.62786382  0.38768313  0.17560562     0.12000
H2490       H  0.60886397  0.36865936  0.17509326     0.13100
H2491       H  0.68014786  0.33563749  0.17836528     0.12200
H2492       H  0.66113802  0.31661397  0.17802145     0.11500
H2493       H  0.63517959  0.30946787  0.17632171     0.16900
H2494       H  0.60180297  0.34263116  0.17430813     0.12800
H2495       H  0.65390810  0.39482563  0.17559911     0.15600
H2496       H  0.68726749  0.36162470  0.17720349     0.15400
C2497       C  0.67321641  0.50523127  0.00505207    -0.17500
C2498       C  0.67344323  0.48992839  0.00494626    -0.19600
C2499       C  0.68649540  0.48238142  0.00780109     0.21000
C2500       C  0.69935634  0.49033495  0.01119609    -0.02600
C2501       C  0.69912552  0.50575691  0.01131918    -0.05600
C2502       C  0.68603164  0.51323547  0.00804988     0.21300
C2503       C  0.71210065  0.51367624  0.01429629     0.19400
C2504       C  0.72507823  0.50615385  0.01747272    -0.17100
C2505       C  0.72531226  0.49087811  0.01733596    -0.19300
C2506       C  0.71256822  0.48289756  0.01402150     0.20900
C2507       C  0.71295099  0.46763171  0.01298498    -0.32300
C2508       C  0.70035461  0.45965789  0.00899251     0.01600
C2509       C  0.68705558  0.46706492  0.00680631    -0.23700
C2510       C  0.68608415  0.52856267  0.00744832    -0.28300
C2511       C  0.69909247  0.53647566  0.00995146     0.07300
C2512       C  0.71197988  0.52896652  0.01364357    -0.26900
H2513       H  0.66306687  0.51080808  0.00255781     0.12000
H2514       H  0.66346680  0.48399710  0.00235699     0.13100
H2515       H  0.73511484  0.51208835  0.01981646     0.12200
H2516       H  0.73552885  0.48530660  0.01956128     0.11500
H2517       H  0.72322337  0.46199772  0.01479705     0.16900
H2518       H  0.67728775  0.46097492  0.00379535     0.12800
H2519       H  0.67610901  0.53429499  0.00460766     0.15600
H2520       H  0.72203531  0.53500287  0.01565940     0.15400
C2521       C  0.69410580  0.38714166  0.09031138    -0.17500
C2522       C  0.69486838  0.38621094  0.07504844    -0.19600
C2523       C  0.70595560  0.39358122  0.06734626     0.21000
C2524       C  0.71661366  0.40168989  0.07509750    -0.02600
C2525       C  0.71588547  0.40256748  0.09057156    -0.05600
C2526       C  0.70445824  0.39540222  0.09816465     0.21300
C2527       C  0.72632025  0.41092543  0.09839399     0.19400
C2528       C  0.73745266  0.41822760  0.09063756    -0.17100
C2529       C  0.73809377  0.41746726  0.07529256    -0.19300
C2530       C  0.72766359  0.40931929  0.06737099     0.20900
C2531       C  0.72764144  0.40919710  0.05189387    -0.32300
C2532       C  0.71656432  0.40168743  0.04413335     0.01600
C2533       C  0.70610310  0.39352679  0.05200407    -0.23700
C2534       C  0.70335411  0.39687406  0.11343552    -0.28300
C2535       C  0.71358172  0.40530803  0.12135674     0.07300
C2536       C  0.72520486  0.41210874  0.11376391    -0.26900
H2537       H  0.68528162  0.38155172  0.09596570     0.12000
H2538       H  0.68658742  0.37995854  0.06923743     0.13100
H2539       H  0.74554885  0.42473013  0.09643045     0.12200
H2540       H  0.74663805  0.42343898  0.06960526     0.11500
H2541       H  0.73562728  0.41567480  0.04594895     0.16900
H2542       H  0.69752428  0.38771705  0.04614671     0.12800
H2543       H  0.69439584  0.39155971  0.11916201     0.15600
H2544       H  0.73308083  0.41871532  0.11975020     0.15400
C2545       C  0.48610709  0.32574582  0.00548976    -0.17500
C2546       C  0.50145194  0.32624691  0.00548589    -0.19600
C2547       C  0.50962270  0.31378430  0.00907744     0.21000
C2548       C  0.50225515  0.30088097  0.01334353    -0.02600
C2549       C  0.48679703  0.30040425  0.01343653    -0.05600
C2550       C  0.47867717  0.31278599  0.00914198     0.21300
C2551       C  0.47949625  0.28732671  0.01721628     0.19400
C2552       C  0.48761943  0.27503908  0.02138688    -0.17100
C2553       C  0.50291896  0.27548172  0.02120413    -0.19300
C2554       C  0.51031563  0.28824794  0.01692272     0.20900
C2555       C  0.52560051  0.28839965  0.01559343    -0.32300
C2556       C  0.53298764  0.30098516  0.01067053     0.01600
C2557       C  0.52497700  0.31379163  0.00788716    -0.23700
C2558       C  0.46334607  0.31175619  0.00795258    -0.28300
C2559       C  0.45612640  0.29847095  0.01095028     0.07300
C2560       C  0.46423739  0.28651394  0.01610563    -0.26900
H2561       H  0.48005848  0.33538854  0.00227547     0.12000
H2562       H  0.50693024  0.33627138  0.00227854     0.13100
H2563       H  0.48214165  0.26494658  0.02438490     0.12200
H2564       H  0.50896512  0.26572619  0.02407193     0.11500
H2565       H  0.53170698  0.27852620  0.01791538     0.16900
H2566       H  0.53061331  0.32354935  0.00415545     0.12800
H2567       H  0.45713645  0.32106215  0.00409871     0.15600
H2568       H  0.45874544  0.27628629  0.01861048     0.15400
C2569       C  0.58193627  0.25950396  0.07340031    -0.17500
C2570       C  0.58188995  0.25918316  0.08876261    -0.19600
C2571       C  0.58836017  0.27057451  0.09690315     0.21000
C2572       C  0.59540482  0.28212577  0.08943506    -0.02600
C2573       C  0.59551227  0.28241324  0.07395799    -0.05600
C2574       C  0.58849527  0.27119816  0.06587077     0.21300
C2575       C  0.60211225  0.29427047  0.06660829     0.19400
C2576       C  0.60894647  0.30545688  0.07467083    -0.17100
C2577       C  0.60881221  0.30518727  0.08995064    -0.19300
C2578       C  0.60186735  0.29371391  0.09741572     0.20900
C2579       C  0.60082579  0.29395366  0.11270574    -0.32300
C2580       C  0.59333130  0.28283630  0.12026795     0.01600
C2581       C  0.58745067  0.27094077  0.11231801    -0.23700
C2582       C  0.58755237  0.27229048  0.05049426    -0.28300
C2583       C  0.59341750  0.28455607  0.04323855     0.07300
C2584       C  0.60114516  0.29516582  0.05136118    -0.26900
H2585       H  0.57653988  0.25076375  0.06741408     0.12000
H2586       H  0.57648093  0.25018678  0.09428016     0.13100
H2587       H  0.61407747  0.31461982  0.06915857     0.12200
H2588       H  0.61386487  0.31413359  0.09593580     0.11500
H2589       H  0.60548919  0.30310388  0.11871212     0.16900
H2590       H  0.58164733  0.26232406  0.11805129     0.12800
H2591       H  0.58149977  0.26411717  0.04432461     0.15600
H2592       H  0.60577437  0.30461016  0.04586388     0.15400
C2593       C  0.65013108  0.33518073  0.98075286    -0.17500
C2594       C  0.66145257  0.34553132  0.98071436    -0.19600
C2595       C  0.65894347  0.35982487  0.98575489     0.21000
C2596       C  0.64479972  0.36384739  0.99053482    -0.02600
C2597       C  0.63336767  0.35339927  0.99056857    -0.05600
C2598       C  0.63611696  0.33895944  0.98583077     0.21300
C2599       C  0.61930617  0.35730355  0.99570154     0.19400
C2600       C  0.61673196  0.37168724  0.00044518    -0.17100
C2601       C  0.62806567  0.38204272  0.00041872    -0.19300
C2602       C  0.64216557  0.37819512  0.99563452     0.20900
C2603       C  0.65375341  0.38832507  0.99620918    -0.32300
C2604       C  0.66797312  0.38424510  0.99189340     0.01600
C2605       C  0.67041597  0.37004510  0.98645103    -0.23700
C2606       C  0.62492631  0.32844960  0.98663007    -0.28300
C2607       C  0.61101145  0.33213781  0.99216180     0.07300
C2608       C  0.60819202  0.34666429  0.99638753    -0.26900
H2609       H  0.65239908  0.32414990  0.97702798     0.12000
H2610       H  0.67223686  0.34228950  0.97695641     0.13100
H2611       H  0.60599939  0.37487517  0.00439136     0.12200
H2612       H  0.62585027  0.39301575  0.00434112     0.11500
H2613       H  0.65178802  0.39924477  0.00042716     0.16900
H2614       H  0.68133080  0.36683317  0.98304113     0.12800
H2615       H  0.62717607  0.31729265  0.98327190     0.15600
H2616       H  0.59749572  0.34959185  0.00064297     0.15400
C2617       C  0.19438793  0.68989811  0.49224273    -0.17500
C2618       C  0.19428149  0.68922573  0.50758329    -0.19600
C2619       C  0.18098626  0.68927879  0.51536228     0.21000
C2620       C  0.16765612  0.68958295  0.50753233    -0.02600
C2621       C  0.16776228  0.69015274  0.49202849    -0.05600
C2622       C  0.18119830  0.69053729  0.48434633     0.21300
C2623       C  0.15442171  0.69075628  0.48425617     0.19400
C2624       C  0.14111742  0.69054666  0.49199490    -0.17100
C2625       C  0.14101516  0.69009289  0.50731226    -0.19300
C2626       C  0.15421503  0.68979140  0.51519300     0.20900
C2627       C  0.15419498  0.69026419  0.53058071    -0.32300
C2628       C  0.16743311  0.69059575  0.53851270     0.01600
C2629       C  0.18079034  0.68963115  0.53079871    -0.23700
C2630       C  0.18119827  0.69191675  0.46896904    -0.28300
C2631       C  0.16791591  0.69281892  0.46115132     0.07300
C2632       C  0.15459012  0.69195330  0.46892165    -0.26900
H2633       H  0.20481590  0.69012322  0.48655890     0.12000
H2634       H  0.20463114  0.68897158  0.51338251     0.13100
H2635       H  0.13076960  0.69099110  0.48620323     0.12200
H2636       H  0.13059209  0.69022609  0.51300948     0.11500
H2637       H  0.14383843  0.69092467  0.53637347     0.16900
H2638       H  0.19105150  0.68989072  0.53676773     0.12800
H2639       H  0.19152598  0.69259135  0.46312863     0.15600
H2640       H  0.14428825  0.69270947  0.46307222     0.15400
C2641       C  0.17219581  0.61789730  0.63400663    -0.17500
C2642       C  0.17232150  0.62852877  0.62301057    -0.19600
C2643       C  0.17306457  0.64345693  0.62660865     0.21000
C2644       C  0.17382644  0.64770070  0.64146522    -0.02600
C2645       C  0.17362788  0.63694800  0.65259235    -0.05600
C2646       C  0.17277998  0.62197542  0.64883202     0.21300
C2647       C  0.17411017  0.64118832  0.66745807     0.19400
C2648       C  0.17493632  0.65612221  0.67105780    -0.17100
C2649       C  0.17520723  0.66675716  0.66004759    -0.19300
C2650       C  0.17458667  0.66267805  0.64521230     0.20900
C2651       C  0.17443094  0.67329897  0.63408359    -0.32300
C2652       C  0.17331453  0.66917182  0.61922434     0.01600
C2653       C  0.17279755  0.65419114  0.61561900    -0.23700
C2654       C  0.17237604  0.61135445  0.65993848    -0.28300
C2655       C  0.17271568  0.61546547  0.67481470     0.07300
C2656       C  0.17362534  0.63044643  0.67844955    -0.26900
H2657       H  0.17153859  0.60646227  0.63090500     0.12000
H2658       H  0.17174063  0.62506416  0.61166668     0.13100
H2659       H  0.17531698  0.65959135  0.68240924     0.12200
H2660       H  0.17577644  0.67819692  0.66314893     0.11500
H2661       H  0.17478926  0.68479381  0.63702384     0.16900
H2662       H  0.17195014  0.65087040  0.60424386     0.12800
H2663       H  0.17158221  0.59988254  0.65698815     0.15600
H2664       H  0.17383027  0.63377369  0.68985237     0.15400
C2665       C  0.24312183  0.58689004  0.74301104    -0.17500
C2666       C  0.25441191  0.58774766  0.75334495    -0.19600
C2667       C  0.25123469  0.59011838  0.76820548     0.21000
C2668       C  0.23653190  0.59180519  0.77268500    -0.02600
C2669       C  0.22510947  0.59093012  0.76223128    -0.05600
C2670       C  0.22843383  0.58839357  0.74733661     0.21300
C2671       C  0.21038110  0.59244672  0.76670287     0.19400
C2672       C  0.20722046  0.59486877  0.78157102    -0.17100
C2673       C  0.21852937  0.59572340  0.79192246    -0.19300
C2674       C  0.23322962  0.59416397  0.78761650     0.20900
C2675       C  0.24465060  0.59462087  0.79798599    -0.32300
C2676       C  0.25933248  0.59258724  0.79363234     0.01600
C2677       C  0.26249472  0.59053541  0.77867247    -0.23700
C2678       C  0.21703113  0.58729887  0.73704179    -0.28300
C2679       C  0.20229498  0.58878091  0.74138101     0.07300
C2680       C  0.19908690  0.59141488  0.75625682    -0.26900
H2681       H  0.24588246  0.58496211  0.73162649     0.12000
H2682       H  0.26564503  0.58643737  0.74971867     0.13100
H2683       H  0.19597801  0.59604237  0.78521472     0.12200
H2684       H  0.21576219  0.59751191  0.80332732     0.11500
H2685       H  0.24206887  0.59612932  0.80947904     0.16900
H2686       H  0.27373968  0.58895118  0.77517844     0.12800
H2687       H  0.21963988  0.58525611  0.72563500     0.15600
H2688       H  0.18777991  0.59249015  0.75974516     0.15400
C2689       C  0.30783983  0.56208627  0.91851477    -0.17500
C2690       C  0.30797430  0.56342870  0.90330497    -0.19600
C2691       C  0.29854582  0.57326960  0.89634846     0.21000
C2692       C  0.28868104  0.58168849  0.90474415    -0.02600
C2693       C  0.28859215  0.58037512  0.92019286    -0.05600
C2694       C  0.29831589  0.57060756  0.92704245     0.21300
C2695       C  0.27904141  0.58901038  0.92878037     0.19400
C2696       C  0.26941290  0.59864951  0.92169042    -0.17100
C2697       C  0.26942564  0.59987678  0.90634232    -0.19300
C2698       C  0.27911470  0.59154084  0.89773348     0.20900
C2699       C  0.27958359  0.59294777  0.88231135    -0.32300
C2700       C  0.28966850  0.58472594  0.87394396     0.01600
C2701       C  0.29898929  0.57488113  0.88113769    -0.23700
C2702       C  0.29871642  0.56977718  0.94232864    -0.28300
C2703       C  0.28972090  0.57870495  0.95112751     0.07300
C2704       C  0.27962518  0.58810828  0.94425085    -0.26900
H2705       H  0.31535835  0.55452126  0.92363375     0.12000
H2706       H  0.31556741  0.55685071  0.89698195     0.13100
H2707       H  0.26196278  0.60536691  0.92802848     0.12200
H2708       H  0.26195984  0.60748445  0.90121681     0.11500
H2709       H  0.27230720  0.60053504  0.87688439     0.16900
H2710       H  0.30669248  0.56837579  0.87486033     0.12800
H2711       H  0.30645799  0.56240159  0.94741124     0.15600
H2712       H  0.27265444  0.59505669  0.95088516     0.15400
C2713       C  0.26626982  0.81145305  0.49243517    -0.17500
C2714       C  0.26618151  0.81166343  0.50777220    -0.19600
C2715       C  0.27815569  0.81738741  0.51560246     0.21000
C2716       C  0.29041610  0.82280151  0.50788766    -0.02600
C2717       C  0.29056974  0.82244703  0.49236836    -0.05600
C2718       C  0.27838371  0.81685793  0.48461590     0.21300
C2719       C  0.30283315  0.82784848  0.48462585     0.19400
C2720       C  0.31477627  0.83361272  0.49247342    -0.17100
C2721       C  0.31456628  0.83408785  0.50781973    -0.19300
C2722       C  0.30244739  0.82871654  0.51566006     0.20900
C2723       C  0.30207949  0.82929607  0.53109562    -0.32300
C2724       C  0.28983134  0.82400112  0.53889274     0.01600
C2725       C  0.27797468  0.81796621  0.53099026    -0.23700
C2726       C  0.27843763  0.81695815  0.46920337    -0.28300
C2727       C  0.29060773  0.82237730  0.46135799     0.07300
C2728       C  0.30284165  0.82762768  0.46919755    -0.26900
H2729       H  0.25682094  0.80710247  0.48668183     0.12000
H2730       H  0.25666892  0.80746111  0.51351596     0.13100
H2731       H  0.32426445  0.83786632  0.48672962     0.12200
H2732       H  0.32389831  0.83869347  0.51356404     0.11500
H2733       H  0.31123482  0.83404215  0.53701798     0.16900
H2734       H  0.26845075  0.81389234  0.53681771     0.12800
H2735       H  0.26893339  0.81292020  0.46330312     0.15600
H2736       H  0.31219083  0.83197872  0.46329111     0.15400
C2737       C  0.20064948  0.77951898  0.59573119    -0.17500
C2738       C  0.21123920  0.79067622  0.59616515    -0.19600
C2739       C  0.22621858  0.78738473  0.59485773     0.21000
C2740       C  0.23054727  0.77265588  0.59328342    -0.02600
C2741       C  0.21985031  0.76139843  0.59276115    -0.05600
C2742       C  0.20481428  0.76484262  0.59391227     0.21300
C2743       C  0.22421176  0.74672572  0.59084722     0.19400
C2744       C  0.23917994  0.74338780  0.58976932    -0.17100
C2745       C  0.24974943  0.75450274  0.59034314    -0.19300
C2746       C  0.24555282  0.76917504  0.59196582     0.20900
C2747       C  0.25609437  0.78041938  0.59199019    -0.32300
C2748       C  0.25190399  0.79518440  0.59320710     0.01600
C2749       C  0.23691405  0.79855079  0.59482223    -0.23700
C2750       C  0.19423775  0.75358753  0.59298508    -0.28300
C2751       C  0.19851350  0.73894485  0.59074048     0.07300
C2752       C  0.21355445  0.73565097  0.58982784    -0.26900
H2753       H  0.18917439  0.78239576  0.59665625     0.12000
H2754       H  0.20769355  0.80191092  0.59740550     0.13100
H2755       H  0.24271810  0.73217050  0.58834501     0.12200
H2756       H  0.26122007  0.75162908  0.58934245     0.11500
H2757       H  0.26757703  0.77766881  0.59073495     0.16900
H2758       H  0.23353798  0.80987211  0.59574042     0.12800
H2759       H  0.18269448  0.75625743  0.59373558     0.15600
H2760       H  0.21700199  0.72442632  0.58819613     0.15400
C2761       C  0.37341259  0.83275401  0.63169270    -0.17500
C2762       C  0.36236885  0.83217184  0.62100442    -0.19600
C2763       C  0.34784406  0.82867514  0.62482439     0.21000
C2764       C  0.34448515  0.82568411  0.63960701    -0.02600
C2765       C  0.35565747  0.82621538  0.65039899    -0.05600
C2766       C  0.37020268  0.82978799  0.64644151     0.21300
C2767       C  0.35222326  0.82328391  0.66516363     0.19400
C2768       C  0.33772031  0.81983422  0.66902579    -0.17100
C2769       C  0.32668919  0.81935686  0.65838608    -0.19300
C2770       C  0.32992863  0.82231518  0.64365762     0.20900
C2771       C  0.31880859  0.82219607  0.63298778    -0.32300
C2772       C  0.32194719  0.82534801  0.61821354     0.01600
C2773       C  0.33659134  0.82836787  0.61420501    -0.23700
C2774       C  0.38121671  0.83040650  0.65729810    -0.28300
C2775       C  0.37786235  0.82749775  0.67209007     0.07300
C2776       C  0.36329197  0.82393368  0.67584692    -0.26900
H2777       H  0.38448589  0.83554968  0.62840926     0.12000
H2778       H  0.36518606  0.83455192  0.60973498     0.13100
H2779       H  0.33488232  0.81756086  0.68031446     0.12200
H2780       H  0.31558005  0.81674764  0.66170440     0.11500
H2781       H  0.30762395  0.81981481  0.63624434     0.16900
H2782       H  0.33916597  0.83087525  0.60290152     0.12800
H2783       H  0.39234338  0.83328195  0.65425613     0.15600
H2784       H  0.36049853  0.82175254  0.68717051     0.15400
C2785       C  0.38115028  0.63294717  0.81833557    -0.17500
C2786       C  0.37026246  0.62206445  0.81823170    -0.19600
C2787       C  0.35533882  0.62582624  0.81809654     0.21000
C2788       C  0.35140423  0.64074535  0.81782522    -0.02600
C2789       C  0.36240437  0.65173732  0.81784859    -0.05600
C2790       C  0.37735500  0.64782729  0.81823620     0.21300
C2791       C  0.35841426  0.66663534  0.81774777     0.19400
C2792       C  0.34352015  0.67042160  0.81740713    -0.17100
C2793       C  0.33265749  0.65956886  0.81745255    -0.19300
C2794       C  0.33647055  0.64471181  0.81780043     0.20900
C2795       C  0.32559359  0.63379845  0.81841571    -0.32300
C2796       C  0.32934738  0.61887984  0.81897553     0.01600
C2797       C  0.34429268  0.61498218  0.81854350    -0.23700
C2798       C  0.38820328  0.65884825  0.81877180    -0.28300
C2799       C  0.38429635  0.67375458  0.81896076     0.07300
C2800       C  0.36934529  0.67750021  0.81826832    -0.26900
H2801       H  0.39255982  0.62971229  0.81861310     0.12000
H2802       H  0.37352512  0.61068485  0.81843428     0.13100
H2803       H  0.34025617  0.68180390  0.81728687     0.12200
H2804       H  0.32124601  0.66281142  0.81737220     0.11500
H2805       H  0.31415279  0.63695415  0.81865916     0.16900
H2806       H  0.34733666  0.60354449  0.81899335     0.12800
H2807       H  0.39966104  0.65581333  0.81935498     0.15600
H2808       H  0.36616830  0.68891413  0.81841916     0.15400
C2809       C  0.40120009  0.79399452  0.78147292    -0.17500
C2810       C  0.40219672  0.78294527  0.79200999    -0.19600
C2811       C  0.40576248  0.76857058  0.78790449     0.21000
C2812       C  0.40828377  0.76530432  0.77299661    -0.02600
C2813       C  0.40717474  0.77644392  0.76234146    -0.05600
C2814       C  0.40368556  0.79088067  0.76660959     0.21300
C2815       C  0.40970116  0.77315433  0.74744920     0.19400
C2816       C  0.41329253  0.75879218  0.74333058    -0.17100
C2817       C  0.41447302  0.74779552  0.75387677    -0.19300
C2818       C  0.41201464  0.75093585  0.76873302     0.20900
C2819       C  0.41328494  0.73997239  0.77938494    -0.32300
C2820       C  0.41076277  0.74309624  0.79428522     0.01600
C2821       C  0.40694102  0.75744136  0.79843723    -0.23700
C2822       C  0.40294136  0.80197080  0.75598348    -0.28300
C2823       C  0.40560193  0.79881548  0.74111409     0.07300
C2824       C  0.40882026  0.78431127  0.73695963    -0.26900
H2825       H  0.39852029  0.80500510  0.78496586     0.12000
H2826       H  0.40024415  0.78566823  0.80340063     0.13100
H2827       H  0.41528892  0.75607745  0.73194468     0.12200
H2828       H  0.41733876  0.73682366  0.75040721     0.11500
H2829       H  0.41624232  0.72897711  0.77605271     0.16900
H2830       H  0.40504687  0.75998939  0.80988331     0.12800
H2831       H  0.40051156  0.81309217  0.75932100     0.15600
H2832       H  0.41096623  0.78173605  0.72556292     0.15400
C2833       C  0.41404252  0.73836992  0.92012583    -0.17500
C2834       C  0.41466189  0.73834336  0.90480648    -0.19600
C2835       C  0.40941391  0.72630640  0.89675580     0.21000
C2836       C  0.40301815  0.71438010  0.90420308    -0.02600
C2837       C  0.40220824  0.71449871  0.91964971    -0.05600
C2838       C  0.40804678  0.72641543  0.92767213     0.21300
C2839       C  0.39618206  0.70239015  0.92707113     0.19400
C2840       C  0.39056386  0.69051126  0.91903619    -0.17100
C2841       C  0.39151347  0.69032671  0.90375588    -0.19300
C2842       C  0.39796861  0.70207516  0.89626323     0.20900
C2843       C  0.39989618  0.70153274  0.88103173    -0.32300
C2844       C  0.40656237  0.71323311  0.87357636     0.01600
C2845       C  0.41092655  0.72575352  0.88145115    -0.23700
C2846       C  0.40851521  0.72579860  0.94305405    -0.28300
C2847       C  0.40338008  0.71333013  0.95043156     0.07300
C2848       C  0.39665196  0.70197680  0.94238656    -0.26900
H2849       H  0.41855074  0.74761573  0.92608416     0.12000
H2850       H  0.41959251  0.74759383  0.89926515     0.13100
H2851       H  0.38585302  0.68115438  0.92459216     0.12200
H2852       H  0.38747863  0.68085240  0.89781635     0.11500
H2853       H  0.39640503  0.69190204  0.87498446     0.16900
H2854       H  0.41612457  0.73476806  0.87574912     0.12800
H2855       H  0.41375575  0.73454578  0.94918019     0.15600
H2856       H  0.39256509  0.69236323  0.94801076     0.15400
C2857       C  0.08982624  0.58175562  0.74369451    -0.17500
C2858       C  0.07445172  0.58206641  0.74415645    -0.19600
C2859       C  0.06642948  0.58882655  0.73295134     0.21000
C2860       C  0.07407582  0.59586800  0.72149158    -0.02600
C2861       C  0.08957593  0.59546167  0.72096552    -0.05600
C2862       C  0.09749277  0.58814083  0.73198402     0.21300
C2863       C  0.09709246  0.60183280  0.70905917     0.19400
C2864       C  0.08916861  0.60912942  0.69817141    -0.17100
C2865       C  0.07386864  0.60959505  0.69872970    -0.19300
C2866       C  0.06622931  0.60272569  0.71015876     0.20900
C2867       C  0.05089019  0.60192814  0.70997828    -0.32300
C2868       C  0.04313920  0.59406102  0.72075441     0.01600
C2869       C  0.05096501  0.58800594  0.73255302    -0.23700
C2870       C  0.11283756  0.58682650  0.73075541    -0.28300
C2871       C  0.12026368  0.59248338  0.71847593     0.07300
C2872       C  0.11233131  0.60029576  0.70790328    -0.26900
H2873       H  0.09570386  0.57615620  0.75230188     0.12000
H2874       H  0.06882223  0.57667591  0.75309496     0.13100
H2875       H  0.09478512  0.61415958  0.68901226     0.12200
H2876       H  0.06798605  0.61495671  0.68997182     0.11500
H2877       H  0.04501360  0.60674796  0.70089335     0.16900
H2878       H  0.04513387  0.58190768  0.74089371     0.12800
H2879       H  0.11888063  0.58081051  0.73896356     0.15600
H2880       H  0.11798323  0.60483778  0.69850180     0.15400
C2881       C  0.00758526  0.66858837  0.49551261    -0.17500
C2882       C  0.00809950  0.66882235  0.51086577    -0.19600
C2883       C  0.00727325  0.68212929  0.51857485     0.21000
C2884       C  0.00625887  0.69533356  0.51067555    -0.02600
C2885       C  0.00563433  0.69509003  0.49523786    -0.05600
C2886       C  0.00616739  0.68164812  0.48758803     0.21300
C2887       C  0.00418845  0.70831778  0.48748791     0.19400
C2888       C  0.00373885  0.72165187  0.49509834    -0.17100
C2889       C  0.00442585  0.72189572  0.51034267    -0.19300
C2890       C  0.00552771  0.70881027  0.51820049     0.20900
C2891       C  0.00550884  0.70901429  0.53347691    -0.32300
C2892       C  0.00591966  0.69594534  0.54150750     0.01600
C2893       C  0.00706195  0.68250052  0.53400328    -0.23700
C2894       C  0.00502994  0.68154898  0.47220434    -0.28300
C2895       C  0.00321161  0.69473696  0.46450506     0.07300
C2896       C  0.00298140  0.70803679  0.47225869    -0.26900
H2897       H  0.00808067  0.65816732  0.48984589     0.12000
H2898       H  0.00895846  0.65857613  0.51671514     0.13100
H2899       H  0.00268758  0.73189114  0.48926323     0.12200
H2900       H  0.00387323  0.73232012  0.51600365     0.11500
H2901       H  0.00466810  0.71943505  0.53912137     0.16900
H2902       H  0.00744619  0.67237697  0.54012239     0.12800
H2903       H  0.00530877  0.67125655  0.46628030     0.15600
H2904       H  0.00176714  0.71826956  0.46643018     0.15400
C2905       C  0.08863053  0.73342154  0.57729379    -0.17500
C2906       C  0.07330953  0.73407076  0.57851720    -0.19600
C2907       C  0.06584296  0.72544734  0.58883953     0.21000
C2908       C  0.07400491  0.71645711  0.59834702    -0.02600
C2909       C  0.08946061  0.71581162  0.59711912    -0.05600
C2910       C  0.09680757  0.72416101  0.58638933     0.21300
C2911       C  0.09749194  0.70641137  0.60630621     0.19400
C2912       C  0.09011459  0.69806396  0.61687643    -0.17100
C2913       C  0.07484991  0.69864778  0.61804167    -0.19300
C2914       C  0.06668959  0.70759532  0.60866399     0.20900
C2915       C  0.05132606  0.70716282  0.60887429    -0.32300
C2916       C  0.04306829  0.71536129  0.59885040     0.01600
C2917       C  0.05038020  0.72498728  0.58927490    -0.23700
C2918       C  0.11211310  0.72278657  0.58471228    -0.28300
C2919       C  0.12013125  0.71312818  0.59362119     0.07300
C2920       C  0.11270872  0.70518472  0.60453443    -0.26900
H2921       H  0.09406120  0.73996635  0.56903005     0.12000
H2922       H  0.06726780  0.74105628  0.57113023     0.13100
H2923       H  0.09612987  0.69083471  0.62404962     0.12200
H2924       H  0.06939187  0.69180945  0.62604785     0.11500
H2925       H  0.04576939  0.69974321  0.61629007     0.16900
H2926       H  0.04410252  0.73121323  0.58140648     0.12800
H2927       H  0.11770752  0.72894149  0.57625198     0.15600
H2928       H  0.11873381  0.69771968  0.61146303     0.15400
C2929       C  0.98646094  0.65134892  0.67073076    -0.17500
C2930       C  0.98662677  0.66220263  0.66000824    -0.19600
C2931       C  0.98878043  0.65848862  0.64524311     0.21000
C2932       C  0.99049258  0.64368171  0.64118744    -0.02600
C2933       C  0.99037943  0.63273715  0.65201140    -0.05600
C2934       C  0.98847725  0.63663005  0.66684937     0.21300
C2935       C  0.99251470  0.61795790  0.64802180     0.19400
C2936       C  0.99431110  0.61422557  0.63321426    -0.17100
C2937       C  0.99435496  0.62507767  0.62246781    -0.19300
C2938       C  0.99266689  0.63983739  0.62636344     0.20900
C2939       C  0.99348315  0.65084058  0.61574793    -0.32300
C2940       C  0.99222052  0.66562986  0.61977992     0.01600
C2941       C  0.98959830  0.66934983  0.63451013    -0.23700
C2942       C  0.98897409  0.62578763  0.67759032    -0.28300
C2943       C  0.99157162  0.61111351  0.67375476     0.07300
C2944       C  0.99313980  0.60723007  0.65893541    -0.26900
H2945       H  0.98496663  0.65448996  0.68208641     0.12000
H2946       H  0.98526049  0.67352125  0.66328471     0.13100
H2947       H  0.99588165  0.60292866  0.62996095     0.12200
H2948       H  0.99596000  0.62194661  0.61112611     0.11500
H2949       H  0.99540836  0.64790579  0.60439772     0.16900
H2950       H  0.98855238  0.68073530  0.63769803     0.12800
H2951       H  0.98776394  0.62886724  0.68900306     0.15600
H2952       H  0.99509931  0.59592333  0.65591938     0.15400
C2953       C  0.37834916  0.90937105  0.70937978    -0.17500
C2954       C  0.37803083  0.92465455  0.70928012    -0.19600
C2955       C  0.38959674  0.93276796  0.71540441     0.21000
C2956       C  0.40140699  0.92544556  0.72208043    -0.02600
C2957       C  0.40175209  0.90999334  0.72212738    -0.05600
C2958       C  0.39024493  0.90194821  0.71558437     0.21300
C2959       C  0.41385098  0.90261939  0.72822207     0.19400
C2960       C  0.42532994  0.91077742  0.73449423    -0.17100
C2961       C  0.42499831  0.92609569  0.73443470    -0.19300
C2962       C  0.41317569  0.93354603  0.72811416     0.20900
C2963       C  0.41328936  0.94888663  0.72696999    -0.32300
C2964       C  0.40197700  0.95610663  0.71952240     0.01600
C2965       C  0.38995356  0.94803014  0.71421119    -0.23700
C2966       C  0.39106142  0.88664728  0.71488349    -0.28300
C2967       C  0.40327991  0.87920197  0.72052068     0.07300
C2968       C  0.41449751  0.88726165  0.72745983    -0.26900
H2969       H  0.36942595  0.90335192  0.70432263     0.12000
H2970       H  0.36889340  0.93013008  0.70411002     0.13100
H2971       H  0.43471351  0.90530721  0.73920633     0.12200
H2972       H  0.43414901  0.93211779  0.73906241     0.11500
H2973       H  0.42272602  0.95506306  0.73077104     0.16900
H2974       H  0.38129300  0.95358375  0.70832781     0.12800
H2975       H  0.38238885  0.88056225  0.70946669     0.15600
H2976       H  0.42400746  0.88163958  0.73173475     0.15400
C2977       C  0.31882834  0.99475395  0.49370308    -0.17500
C2978       C  0.31812629  0.99422836  0.50900846    -0.19600
C2979       C  0.30595031  0.99991604  0.51649366     0.21000
C2980       C  0.29448281  0.00642229  0.50849519    -0.02600
C2981       C  0.29525262  0.00707067  0.49308760    -0.05600
C2982       C  0.30739726  0.00104469  0.48562983     0.21300
C2983       C  0.28366859  0.01340676  0.48513868     0.19400
C2984       C  0.27156593  0.01923300  0.49259459    -0.17100
C2985       C  0.27075264  0.01849432  0.50783760    -0.19300
C2986       C  0.28208417  0.01201009  0.51585982     0.20900
C2987       C  0.28110426  0.01081542  0.53109938    -0.32300
C2988       C  0.29240230  0.00422562  0.53913943     0.01600
C2989       C  0.30489415  0.99897516  0.53179685    -0.23700
C2990       C  0.30762043  0.00097070  0.47024209    -0.28300
C2991       C  0.29578754  0.00675818  0.46230194     0.07300
C2992       C  0.28409399  0.01333178  0.46984590    -0.26900
H2993       H  0.32823119  0.99007755  0.48817097     0.12000
H2994       H  0.32702177  0.98919185  0.51498216     0.13100
H2995       H  0.26259410  0.02412915  0.48661385     0.12200
H2996       H  0.26118760  0.02286559  0.51334502     0.11500
H2997       H  0.27146768  0.01492810  0.53669942     0.16900
H2998       H  0.31360624  0.99381531  0.53794301     0.12800
H2999       H  0.31666012  0.99585889  0.46448218     0.15600
H3000       H  0.27497189  0.01788280  0.46380154     0.15400
C3001       C  0.27276299  0.90668774  0.56098317    -0.17500
C3002       C  0.27188568  0.92192342  0.56063154    -0.19600
C3003       C  0.26983408  0.92993091  0.57359684     0.21000
C3004       C  0.26838143  0.92253234  0.58704581    -0.02600
C3005       C  0.26931372  0.90709278  0.58740695    -0.05600
C3006       C  0.27163135  0.89920055  0.57430936     0.21300
C3007       C  0.26837184  0.89960377  0.60087155     0.19400
C3008       C  0.26625396  0.90768497  0.61382452    -0.17100
C3009       C  0.26535313  0.92300933  0.61346961    -0.19300
C3010       C  0.26653673  0.93057682  0.60015375     0.20900
C3011       C  0.26662978  0.94601485  0.59974745    -0.32300
C3012       C  0.26881490  0.95339928  0.58640784     0.01600
C3013       C  0.26991836  0.94523315  0.57337411    -0.23700
C3014       C  0.27321960  0.88398920  0.57474895    -0.28300
C3015       C  0.27270957  0.87639562  0.58810295     0.07300
C3016       C  0.26999475  0.88425183  0.60114082    -0.26900
H3017       H  0.27457091  0.90076804  0.55084174     0.12000
H3018       H  0.27307290  0.92746731  0.55023103     0.13100
H3019       H  0.26551984  0.90216672  0.62427554     0.12200
H3020       H  0.26398255  0.92896074  0.62365831     0.11500
H3021       H  0.26601423  0.95221959  0.60986628     0.16900
H3022       H  0.27165067  0.95082458  0.56306129     0.12800
H3023       H  0.27524732  0.87807704  0.56463633     0.15600
H3024       H  0.26963632  0.87851189  0.61149486     0.15400
C3025       C  0.37350899  0.98496174  0.62695943    -0.17500
C3026       C  0.36204490  0.98421833  0.61682742    -0.19600
C3027       C  0.34742937  0.98521074  0.62152377     0.21000
C3028       C  0.34429087  0.98637650  0.63661508    -0.02600
C3029       C  0.35583197  0.98717923  0.64680883    -0.05600
C3030       C  0.37052308  0.98673640  0.64193150     0.21300
C3031       C  0.35266121  0.98899175  0.66181931     0.19400
C3032       C  0.33805576  0.98939038  0.66659984    -0.17100
C3033       C  0.32661532  0.98858405  0.65649512    -0.19300
C3034       C  0.32963855  0.98737615  0.64148240     0.20900
C3035       C  0.31829799  0.98784174  0.63122093    -0.32300
C3036       C  0.32141513  0.98758374  0.61615219     0.01600
C3037       C  0.33594114  0.98574361  0.61137387    -0.23700
C3038       C  0.38193167  0.98856689  0.65205890    -0.28300
C3039       C  0.37875694  0.99104417  0.66691118     0.07300
C3040       C  0.36413443  0.99086604  0.67174979    -0.26900
H3041       H  0.38471602  0.98451108  0.62304775     0.12000
H3042       H  0.36462268  0.98323605  0.60528293     0.13100
H3043       H  0.33548526  0.99068108  0.67811849     0.12200
H3044       H  0.31541421  0.98929239  0.66038750     0.11500
H3045       H  0.30709377  0.98910922  0.63497736     0.16900
H3046       H  0.33837560  0.98538690  0.59975799     0.12800
H3047       H  0.39321730  0.98851394  0.64832921     0.15600
H3048       H  0.36163555  0.99248474  0.68325136     0.15400
C3049       C  0.32178844  0.50676146  0.81920089    -0.17500
C3050       C  0.32142784  0.49143541  0.81935614    -0.19600
C3051       C  0.30800435  0.48387170  0.81920866     0.21000
C3052       C  0.29480501  0.49185238  0.81861828    -0.02600
C3053       C  0.29517059  0.50733326  0.81843360    -0.05600
C3054       C  0.30872940  0.51484023  0.81887365     0.21300
C3055       C  0.28195741  0.51528422  0.81813009     0.19400
C3056       C  0.26853348  0.50773722  0.81760395    -0.17100
C3057       C  0.26817103  0.49243034  0.81781336    -0.19300
C3058       C  0.28123126  0.48438656  0.81853134     0.20900
C3059       C  0.28094848  0.46904328  0.81947952    -0.32300
C3060       C  0.29406532  0.46100144  0.82040003     0.01600
C3061       C  0.30755162  0.46850612  0.81996678    -0.23700
C3062       C  0.30896512  0.53025687  0.81930786    -0.28300
C3063       C  0.29579324  0.53824087  0.81951851     0.07300
C3064       C  0.28236268  0.53062756  0.81869764    -0.26900
H3065       H  0.33230156  0.51230439  0.81951496     0.12000
H3066       H  0.33167102  0.48549306  0.81978453     0.13100
H3067       H  0.25828703  0.51368291  0.81726685     0.12200
H3068       H  0.25765424  0.48688512  0.81763182     0.11500
H3069       H  0.27049413  0.46336768  0.81968881     0.16900
H3070       H  0.31769791  0.46241852  0.82067597     0.12800
H3071       H  0.31935795  0.53600891  0.81994306     0.15600
H3072       H  0.27215384  0.53666160  0.81872330     0.15400
C3073       C  0.26616177  0.39452045  0.92050448    -0.17500
C3074       C  0.26719691  0.39425212  0.90519587    -0.19600
C3075       C  0.27511960  0.40510602  0.89772527     0.21000
C3076       C  0.28184842  0.41650398  0.90576988    -0.02600
C3077       C  0.28069987  0.41683914  0.92121560    -0.05600
C3078       C  0.27298156  0.40567957  0.92865048     0.21300
C3079       C  0.28761866  0.42811868  0.92922601     0.19400
C3080       C  0.29533339  0.43913082  0.92176845    -0.17100
C3081       C  0.29653398  0.43875828  0.90650064    -0.19300
C3082       C  0.28997872  0.42740535  0.89841792     0.20900
C3083       C  0.29156698  0.42666958  0.88314324    -0.32300
C3084       C  0.28494489  0.41531313  0.87503194     0.01600
C3085       C  0.27659959  0.40465584  0.88239381    -0.23700
C3086       C  0.27268826  0.40558173  0.94408168    -0.28300
C3087       C  0.28012569  0.41645063  0.95214170     0.07300
C3088       C  0.28718751  0.42790299  0.94457015    -0.26900
H3089       H  0.26017885  0.38587090  0.92599077     0.12000
H3090       H  0.26194642  0.38542791  0.89920346     0.13100
H3091       H  0.30067900  0.44789443  0.92777000     0.12200
H3092       H  0.30273819  0.44726327  0.90102624     0.11500
H3093       H  0.29794680  0.43497685  0.87755020     0.16900
H3094       H  0.27152332  0.39584295  0.87622470     0.12800
H3095       H  0.26728023  0.39669654  0.94978722     0.15600
H3096       H  0.29292011  0.43638175  0.95063879     0.15400
C3097       C  0.15298705  0.50330332  0.72594340    -0.17500
C3098       C  0.15330963  0.48804966  0.72572520    -0.19600
C3099       C  0.15960287  0.48056213  0.71387413     0.21000
C3100       C  0.16550231  0.48846845  0.70201665    -0.02600
C3101       C  0.16514715  0.50393919  0.70222327    -0.05600
C3102       C  0.15894906  0.51133049  0.71430976     0.21300
C3103       C  0.17113196  0.51199441  0.69047862     0.19400
C3104       C  0.17726408  0.50441080  0.67854208    -0.17100
C3105       C  0.17764359  0.48904571  0.67835180    -0.19300
C3106       C  0.17186879  0.48093417  0.69008004     0.20900
C3107       C  0.17240786  0.46548062  0.69019850    -0.32300
C3108       C  0.16658556  0.45757657  0.70211686     0.01600
C3109       C  0.16016042  0.46529072  0.71381295    -0.23700
C3110       C  0.15898820  0.52663057  0.71472647    -0.28300
C3111       C  0.16516211  0.53484410  0.70326865     0.07300
C3112       C  0.17106108  0.52744009  0.69103743    -0.26900
H3113       H  0.14816611  0.50883340  0.73528435     0.12000
H3114       H  0.14871553  0.48209937  0.73489541     0.13100
H3115       H  0.18188998  0.51036791  0.66939643     0.12200
H3116       H  0.18253977  0.48350868  0.66905789     0.11500
H3117       H  0.17737569  0.45965360  0.68111769     0.16900
H3118       H  0.15564305  0.45938944  0.72305980     0.12800
H3119       H  0.15433298  0.53216358  0.72415836     0.15600
H3120       H  0.17582248  0.53365853  0.68213334     0.15400
C3121       C  0.25357454  0.41585469  0.75389754    -0.17500
C3122       C  0.24245127  0.41586417  0.74334297    -0.19600
C3123       C  0.22828661  0.41093166  0.74685052     0.21000
C3124       C  0.22530081  0.40596000  0.76115423    -0.02600
C3125       C  0.23654583  0.40595401  0.77182594    -0.05600
C3126       C  0.25074767  0.41091770  0.76816776     0.21300
C3127       C  0.23354409  0.40107760  0.78616557     0.19400
C3128       C  0.21934868  0.39624115  0.78968749    -0.17100
C3129       C  0.20822676  0.39622940  0.77912294    -0.19300
C3130       C  0.21107379  0.40105791  0.76482259     0.20900
C3131       C  0.19994207  0.40113323  0.75416481    -0.32300
C3132       C  0.20282218  0.40607681  0.73986109     0.01600
C3133       C  0.21705920  0.41095118  0.73632595    -0.23700
C3134       C  0.26182004  0.41102314  0.77887346    -0.28300
C3135       C  0.25890287  0.40632410  0.79326838     0.07300
C3136       C  0.24472232  0.40128420  0.79677146    -0.26900
H3137       H  0.26439719  0.41974754  0.75090001     0.12000
H3138       H  0.24493182  0.41975078  0.73242284     0.13100
H3139       H  0.21682879  0.39249006  0.80064546     0.12200
H3140       H  0.19737195  0.39245602  0.78215474     0.11500
H3141       H  0.18901136  0.39744163  0.75704206     0.16900
H3142       H  0.21940428  0.41486098  0.72537903     0.12800
H3143       H  0.27265178  0.41504049  0.77605545     0.15600
H3144       H  0.24231286  0.39772257  0.80782295     0.15400
C3145       C  0.33106628  0.34153211  0.83960437    -0.17500
C3146       C  0.34176316  0.33060402  0.84009436    -0.19600
C3147       C  0.35586239  0.33316956  0.83446144     0.21000
C3148       C  0.35928941  0.34697987  0.82850053    -0.02600
C3149       C  0.34847245  0.35805405  0.82803918    -0.05600
C3150       C  0.33426396  0.35524883  0.83349054     0.21300
C3151       C  0.35184238  0.37187036  0.82203017     0.19400
C3152       C  0.36603823  0.37449174  0.81664346    -0.17100
C3153       C  0.37672982  0.36351569  0.81705489    -0.19300
C3154       C  0.37347175  0.34969188  0.82290250     0.20900
C3155       C  0.38409365  0.33852957  0.82318605    -0.32300
C3156       C  0.38069577  0.32464529  0.82893915     0.01600
C3157       C  0.36653933  0.32213124  0.83461503    -0.23700
C3158       C  0.32347181  0.36615564  0.83266852    -0.28300
C3159       C  0.32664845  0.37996166  0.82659067     0.07300
C3160       C  0.34094903  0.38276148  0.82142966    -0.26900
H3161       H  0.32024262  0.33921416  0.84392684     0.12000
H3162       H  0.33896465  0.32008943  0.84478569     0.13100
H3163       H  0.36885870  0.38502570  0.81201333     0.12200
H3164       H  0.38755295  0.36583227  0.81273332     0.11500
H3165       H  0.39495915  0.34061992  0.81884269     0.16900
H3166       H  0.36379997  0.31154171  0.83918544     0.12800
H3167       H  0.31257408  0.36389870  0.83685130     0.15600
H3168       H  0.34356416  0.39336158  0.81682009     0.15400
C3169       C  0.43886958  0.27926085  0.92474481    -0.17500
C3170       C  0.43878221  0.28068964  0.90951950    -0.19600
C3171       C  0.42573357  0.27880841  0.90161386     0.21000
C3172       C  0.41267533  0.27516861  0.90908012    -0.02600
C3173       C  0.41273751  0.27385269  0.92450795    -0.05600
C3174       C  0.42588437  0.27604600  0.93234395     0.21300
C3175       C  0.39958921  0.27083312  0.93211269     0.19400
C3176       C  0.38658463  0.26873451  0.92413229    -0.17100
C3177       C  0.38655731  0.26985694  0.90881676    -0.19300
C3178       C  0.39951461  0.27319855  0.90117790     0.20900
C3179       C  0.39952856  0.27488303  0.88584186    -0.32300
C3180       C  0.41247370  0.27887009  0.87841169     0.01600
C3181       C  0.42550773  0.28074795  0.88640283    -0.23700
C3182       C  0.42572143  0.27571913  0.94767937    -0.28300
C3183       C  0.41253615  0.27362054  0.95542453     0.07300
C3184       C  0.39957526  0.27066488  0.94755178    -0.26900
H3185       H  0.44905028  0.28099078  0.93061395     0.12000
H3186       H  0.44890593  0.28343445  0.90393708     0.13100
H3187       H  0.37637610  0.26642772  0.92975417     0.12200
H3188       H  0.37634028  0.26832710  0.90296072     0.11500
H3189       H  0.38941285  0.27353747  0.87975876     0.16900
H3190       H  0.43552600  0.28376622  0.88075305     0.12800
H3191       H  0.43576981  0.27799657  0.95361094     0.15600
H3192       H  0.38934178  0.26914826  0.95340209     0.15400
C3193       C  0.39529910  0.20627206  0.78121565    -0.17500
C3194       C  0.39586728  0.21686293  0.79233638    -0.19600
C3195       C  0.39910053  0.23151455  0.78903898     0.21000
C3196       C  0.40152712  0.23556911  0.77433878    -0.02600
C3197       C  0.40103705  0.22486044  0.76312081    -0.05600
C3198       C  0.39801576  0.21011510  0.76658617     0.21300
C3199       C  0.40386741  0.22887268  0.74848711     0.19400
C3200       C  0.40683301  0.24356201  0.74514247    -0.17100
C3201       C  0.40723444  0.25416662  0.75622485    -0.19300
C3202       C  0.40472735  0.25026953  0.77086527     0.20900
C3203       C  0.40565559  0.26076219  0.78210383    -0.32300
C3204       C  0.40362678  0.25676139  0.79683817     0.01600
C3205       C  0.40021417  0.24211673  0.80019123    -0.23700
C3206       C  0.39810736  0.19944473  0.75542338    -0.28300
C3207       C  0.40134599  0.20330816  0.74085333     0.07300
C3208       C  0.40400578  0.21810088  0.73749061    -0.26900
H3209       H  0.39292989  0.19502267  0.78409180     0.12000
H3210       H  0.39391947  0.21355733  0.80355173     0.13100
H3211       H  0.40899693  0.24683294  0.73395531     0.12200
H3212       H  0.40969058  0.26540177  0.75335971     0.11500
H3213       H  0.40835211  0.27198951  0.77939621     0.16900
H3214       H  0.39862413  0.23892205  0.81149989     0.12800
H3215       H  0.39608101  0.18808709  0.75814956     0.15600
H3216       H  0.40648716  0.22122012  0.72631855     0.15400
C3217       C  0.39499465  0.08999712  0.73263972    -0.17500
C3218       C  0.39558635  0.07463395  0.73207993    -0.19600
C3219       C  0.40167614  0.06741318  0.71989415     0.21000
C3220       C  0.40704095  0.07584086  0.70810906    -0.02600
C3221       C  0.40628853  0.09128116  0.70859658    -0.05600
C3222       C  0.40037627  0.09846845  0.72097274     0.21300
C3223       C  0.41159665  0.09951498  0.69668855     0.19400
C3224       C  0.41752626  0.09241011  0.68443240    -0.17100
C3225       C  0.41842383  0.07720729  0.68402744    -0.19300
C3226       C  0.41325404  0.06886147  0.69580055     0.20900
C3227       C  0.41418447  0.05363469  0.69535973    -0.32300
C3228       C  0.40882340  0.04501362  0.70691985     0.01600
C3229       C  0.40253595  0.05197927  0.71921575    -0.23700
C3230       C  0.40013834  0.11394212  0.72143829    -0.28300
C3231       C  0.40569051  0.12215474  0.70959024     0.07300
C3232       C  0.41114641  0.11475029  0.69723415    -0.26900
H3233       H  0.39036268  0.09525226  0.74222794     0.12000
H3234       H  0.39136745  0.06840172  0.74123574     0.13100
H3235       H  0.42162170  0.09862810  0.67520622     0.12200
H3236       H  0.42317046  0.07196665  0.67448253     0.11500
H3237       H  0.41903141  0.04847488  0.68581322     0.16900
H3238       H  0.39834072  0.04544480  0.72817257     0.12800
H3239       H  0.39582988  0.11953714  0.73098988     0.15600
H3240       H  0.41532823  0.12088038  0.68797943     0.15400
C3241       C  0.29053145  0.13744544  0.48648257    -0.17500
C3242       C  0.29040450  0.13747910  0.50182000    -0.19600
C3243       C  0.29460614  0.15003798  0.50969650     0.21000
C3244       C  0.29926841  0.16258755  0.50200971    -0.02600
C3245       C  0.29931437  0.16258200  0.48650266    -0.05600
C3246       C  0.29478692  0.14999311  0.47872031     0.21300
C3247       C  0.30355262  0.17528120  0.47880930     0.19400
C3248       C  0.30803080  0.18773470  0.48668606    -0.17100
C3249       C  0.30806254  0.18771429  0.50202444    -0.19300
C3250       C  0.30357694  0.17525432  0.50980152     0.20900
C3251       C  0.30302952  0.17535866  0.52520500    -0.32300
C3252       C  0.29800833  0.16304035  0.53297402     0.01600
C3253       C  0.29395163  0.15036345  0.52509371    -0.23700
C3254       C  0.29418857  0.15029997  0.46334533    -0.28300
C3255       C  0.29790839  0.16308013  0.45558307     0.07300
C3256       C  0.30286222  0.17543845  0.46341506    -0.26900
H3257       H  0.28706224  0.12766569  0.48068673     0.12000
H3258       H  0.28685181  0.12772022  0.50752616     0.13100
H3259       H  0.31134621  0.19757466  0.48097905     0.12200
H3260       H  0.31141730  0.19753540  0.50781417     0.11500
H3261       H  0.30610850  0.18519533  0.53113023     0.16900
H3262       H  0.29008099  0.14080022  0.53093832     0.12800
H3263       H  0.29040049  0.14069504  0.45744384     0.15600
H3264       H  0.30576742  0.18532767  0.45756476     0.15400
C3265       C  0.37624603  0.17462398  0.62936951    -0.17500
C3266       C  0.36583666  0.17434097  0.61804517    -0.19600
C3267       C  0.35075308  0.17471569  0.62119975     0.21000
C3268       C  0.34619422  0.17555268  0.63596281    -0.02600
C3269       C  0.35669768  0.17574608  0.64739753    -0.05600
C3270       C  0.37180763  0.17524132  0.64410755     0.21300
C3271       C  0.35203779  0.17624407  0.66213319     0.19400
C3272       C  0.33699902  0.17673743  0.66532144    -0.17100
C3273       C  0.32664393  0.17664506  0.65404259    -0.19300
C3274       C  0.33111441  0.17596458  0.63934994     0.20900
C3275       C  0.32071189  0.17537149  0.62804990    -0.32300
C3276       C  0.32503376  0.17412197  0.61328911     0.01600
C3277       C  0.34014628  0.17398170  0.60993667    -0.23700
C3278       C  0.38214932  0.17517138  0.65560910    -0.28300
C3279       C  0.37755188  0.17547995  0.67037679     0.07300
C3280       C  0.36244298  0.17608011  0.67345982    -0.26900
H3281       H  0.38778717  0.17423120  0.62659204     0.12000
H3282       H  0.36959602  0.17371870  0.60680496     0.13100
H3283       H  0.33322717  0.17712625  0.67656895     0.12200
H3284       H  0.31510076  0.17694962  0.65683008     0.11500
H3285       H  0.30915724  0.17548830  0.63082921     0.16900
H3286       H  0.34364183  0.17302340  0.59863039     0.12800
H3287       H  0.39374194  0.17461570  0.65306843     0.15600
H3288       H  0.35873164  0.17628091  0.68473784     0.15400
C3289       C  0.29973884  0.07454716  0.61143854    -0.17500
C3290       C  0.30010853  0.08982306  0.61084890    -0.19600
C3291       C  0.28946593  0.09748046  0.60291585     0.21000
C3292       C  0.27795442  0.08972249  0.59604535    -0.02600
C3293       C  0.27751288  0.07427414  0.59673942    -0.05600
C3294       C  0.28865997  0.06667478  0.60418909     0.21300
C3295       C  0.26628923  0.06642406  0.58947199     0.19400
C3296       C  0.25538678  0.07415666  0.58194050    -0.17100
C3297       C  0.25586467  0.08946536  0.58119449    -0.19300
C3298       C  0.26724434  0.09734368  0.58798437     0.20900
C3299       C  0.26847675  0.11260567  0.58633981    -0.32300
C3300       C  0.28038132  0.12028677  0.59252923     0.01600
C3301       C  0.29053339  0.11268022  0.60120067    -0.23700
C3302       C  0.28890301  0.05134352  0.60374390    -0.28300
C3303       C  0.27809612  0.04341880  0.59606526     0.07300
C3304       C  0.26654516  0.05101052  0.58934004    -0.26900
H3305       H  0.30832156  0.06887027  0.61728884     0.12000
H3306       H  0.30896824  0.09562748  0.61625648     0.13100
H3307       H  0.24666993  0.06834230  0.57632076     0.12200
H3308       H  0.24750778  0.09512363  0.57501221     0.11500
H3309       H  0.26055682  0.11838295  0.57970177     0.16900
H3310       H  0.29965924  0.11850638  0.60613732     0.12800
H3311       H  0.29782451  0.04555381  0.60896631     0.15600
H3312       H  0.25828756  0.04497276  0.58326643     0.15400
C3313       C  0.17382315  0.26530691  0.48896954    -0.17500
C3314       C  0.17291045  0.26543158  0.50422343    -0.19600
C3315       C  0.17261306  0.27872150  0.51193613     0.21000
C3316       C  0.17342524  0.29204793  0.50424594    -0.02600
C3317       C  0.17413603  0.29192348  0.48876950    -0.05600
C3318       C  0.17422708  0.27847007  0.48115482     0.21300
C3319       C  0.17443548  0.30519951  0.48092248     0.19400
C3320       C  0.17446615  0.31848702  0.48873036    -0.17100
C3321       C  0.17396516  0.31860874  0.50410573    -0.19300
C3322       C  0.17333256  0.30544770  0.51199689     0.20900
C3323       C  0.17253796  0.30538667  0.52744774    -0.32300
C3324       C  0.17156231  0.29206897  0.53513387     0.01600
C3325       C  0.17151464  0.27884216  0.52721692    -0.23700
C3326       C  0.17417650  0.27833628  0.46584042    -0.28300
C3327       C  0.17368276  0.29143631  0.45784961     0.07300
C3328       C  0.17422804  0.30488998  0.46545758    -0.26900
H3329       H  0.17391844  0.25489312  0.48326100     0.12000
H3330       H  0.17237820  0.25511099  0.50999554     0.13100
H3331       H  0.17473065  0.32880369  0.48294019     0.12200
H3332       H  0.17391949  0.32901560  0.50982158     0.11500
H3333       H  0.17247066  0.31563919  0.53344616     0.16900
H3334       H  0.17080441  0.26852473  0.53299370     0.12800
H3335       H  0.17396432  0.26791835  0.46012568     0.15600
H3336       H  0.17394887  0.31505372  0.45939996     0.15400
C3337       C  0.21686620  0.20442809  0.59774110    -0.17500
C3338       C  0.20612231  0.21537359  0.59813816    -0.19600
C3339       C  0.20917860  0.22948985  0.59288147     0.21000
C3340       C  0.22326467  0.23258363  0.58725440    -0.02600
C3341       C  0.23409638  0.22152496  0.58681752    -0.05600
C3342       C  0.23089123  0.20735711  0.59205674     0.21300
C3343       C  0.24809834  0.22464388  0.58102207     0.19400
C3344       C  0.25118799  0.23872629  0.57577512    -0.17100
C3345       C  0.24050455  0.24964940  0.57623036    -0.19300
C3346       C  0.22651312  0.24669747  0.58192278     0.20900
C3347       C  0.21569169  0.25758511  0.58218940    -0.32300
C3348       C  0.20152436  0.25460990  0.58757097     0.01600
C3349       C  0.19838696  0.24050668  0.59298137    -0.23700
C3350       C  0.24172435  0.19639058  0.59140005    -0.28300
C3351       C  0.25571802  0.19943396  0.58554089     0.07300
C3352       C  0.25876396  0.21363662  0.58045395    -0.26900
H3353       H  0.21417249  0.19363572  0.60182205     0.12000
H3354       H  0.19538379  0.21276986  0.60250753     0.13100
H3355       H  0.26188058  0.24129321  0.57126969     0.12200
H3356       H  0.24317495  0.26041343  0.57205872     0.11500
H3357       H  0.21824830  0.26834608  0.57792501     0.16900
H3358       H  0.18751841  0.23805899  0.59712579     0.12800
H3359       H  0.23923301  0.18549321  0.59533983     0.15600
H3360       H  0.26945970  0.21613382  0.57590261     0.15400
C3361       C  0.17971009  0.37197606  0.63385468    -0.17500
C3362       C  0.17944059  0.36133193  0.62279980    -0.19600
C3363       C  0.17542775  0.34684716  0.62596738     0.21000
C3364       C  0.17162521  0.34306485  0.64045690    -0.02600
C3365       C  0.17186734  0.35384356  0.65163898    -0.05600
C3366       C  0.17595607  0.36835705  0.64829786     0.21300
C3367       C  0.16799406  0.35011119  0.66611941     0.19400
C3368       C  0.16389365  0.33563432  0.66927748    -0.17100
C3369       C  0.16370162  0.32495227  0.65821598    -0.19300
C3370       C  0.16756397  0.32854027  0.64376500     0.20900
C3371       C  0.16738730  0.31789658  0.63256407    -0.32300
C3372       C  0.17112826  0.32157796  0.61803511     0.01600
C3373       C  0.17512245  0.33611975  0.61488103    -0.23700
C3374       C  0.17615736  0.37902954  0.65940705    -0.28300
C3375       C  0.17230452  0.37545538  0.67387595     0.07300
C3376       C  0.16823355  0.36092751  0.67713968    -0.26900
H3377       H  0.18285091  0.38306890  0.63109136     0.12000
H3378       H  0.18238239  0.36444123  0.61174344     0.13100
H3379       H  0.16084834  0.33255993  0.68031735     0.12200
H3380       H  0.16051605  0.31387005  0.66096912     0.11500
H3381       H  0.16421065  0.30676475  0.63514434     0.16900
H3382       H  0.17797699  0.33911476  0.60376434     0.12800
H3383       H  0.17919620  0.39017950  0.65673860     0.15600
H3384       H  0.16511401  0.35805836  0.68822047     0.15400
C3385       C  0.01816863  0.50294849  0.72536492    -0.17500
C3386       C  0.01780423  0.48769845  0.72514499    -0.19600
C3387       C  0.01252968  0.48020580  0.71279970     0.21000
C3388       C  0.00795585  0.48808319  0.70037561    -0.02600
C3389       C  0.00835384  0.50349296  0.70058900    -0.05600
C3390       C  0.01328801  0.51091326  0.71323931     0.21300
C3391       C  0.00339762  0.51146392  0.68835879     0.19400
C3392       C  0.99845834  0.50390346  0.67587622    -0.17100
C3393       C  0.99805087  0.48858737  0.67567018    -0.19300
C3394       C  0.00258304  0.48058554  0.68793539     0.20900
C3395       C  0.00143918  0.46526814  0.68818751    -0.32300
C3396       C  0.00549786  0.45745952  0.70077536     0.01600
C3397       C  0.01134100  0.46498384  0.71287651    -0.23700
C3398       C  0.01279840  0.52616942  0.71377556    -0.28300
C3399       C  0.00732975  0.53419599  0.70191207     0.07300
C3400       C  0.00300148  0.52681824  0.68905873    -0.26900
H3401       H  0.02202036  0.50852247  0.73513042     0.12000
H3402       H  0.02138819  0.48176843  0.73473841     0.13100
H3403       H  0.99465341  0.50983852  0.66637485     0.12200
H3404       H  0.99394711  0.48300846  0.66601174     0.11500
H3405       H  0.99696763  0.45949333  0.67880310     0.16900
H3406       H  0.01460939  0.45902017  0.72257088     0.12800
H3407       H  0.01625018  0.53178532  0.72367502     0.15600
H3408       H  0.99876750  0.53296100  0.67987021     0.15400
C3409       C  0.08975864  0.39162706  0.68791561    -0.17500
C3410       C  0.07444320  0.39133650  0.68804874    -0.19600
C3411       C  0.06667842  0.39597483  0.70049357     0.21000
C3412       C  0.07438361  0.40058902  0.71307297    -0.02600
C3413       C  0.08987619  0.40081037  0.71296358    -0.05600
C3414       C  0.09755583  0.39651735  0.70023871     0.21300
C3415       C  0.09765665  0.40568637  0.72542764     0.19400
C3416       C  0.08984669  0.41012738  0.73792556    -0.17100
C3417       C  0.07448025  0.41000930  0.73799425    -0.19300
C3418       C  0.06661881  0.40535950  0.72559984     0.20900
C3419       C  0.05117569  0.40581017  0.72532821    -0.32300
C3420       C  0.04348475  0.40170259  0.71261281     0.01600
C3421       C  0.05134623  0.39651674  0.70038021    -0.23700
C3422       C  0.11287519  0.39756016  0.69990245    -0.28300
C3423       C  0.12070756  0.40272123  0.71214122     0.07300
C3424       C  0.11306466  0.40643233  0.72500538    -0.26900
H3425       H  0.09550299  0.38823558  0.67808835     0.12000
H3426       H  0.06866232  0.38773098  0.67831585     0.13100
H3427       H  0.09562580  0.41392163  0.74758567     0.12200
H3428       H  0.06873828  0.41372310  0.74770196     0.11500
H3429       H  0.04520636  0.40994958  0.73472865     0.16900
H3430       H  0.04551258  0.39329024  0.69053665     0.12800
H3431       H  0.11871477  0.39455797  0.68999404     0.15600
H3432       H  0.11905312  0.41045723  0.73445165     0.15400
C3433       C  0.99672543  0.32115219  0.49043545    -0.17500
C3434       C  0.99713518  0.32149951  0.50576237    -0.19600
C3435       C  0.99107631  0.30999003  0.51393704     0.21000
C3436       C  0.98412408  0.29824566  0.50658925    -0.02600
C3437       C  0.98368762  0.29790941  0.49116678    -0.05600
C3438       C  0.99024142  0.30929275  0.48303527     0.21300
C3439       C  0.97718988  0.28588058  0.48389609     0.19400
C3440       C  0.97071760  0.27459746  0.49202894    -0.17100
C3441       C  0.97116329  0.27491972  0.50729187    -0.19300
C3442       C  0.97807221  0.28654079  0.51462714     0.20900
C3443       C  0.97948148  0.28636330  0.52983889    -0.32300
C3444       C  0.98685298  0.29770479  0.53719957     0.01600
C3445       C  0.99228757  0.30971266  0.52927074    -0.23700
C3446       C  0.99072475  0.30828218  0.46769177    -0.28300
C3447       C  0.98492949  0.29592464  0.46048581     0.07300
C3448       C  0.97781408  0.28500780  0.46863432    -0.26900
H3449       H  0.00176393  0.33000550  0.48436685     0.12000
H3450       H  0.00246952  0.33061962  0.51121376     0.13100
H3451       H  0.96562522  0.26533853  0.48657805     0.12200
H3452       H  0.96639729  0.26591125  0.51335344     0.11500
H3453       H  0.97515409  0.27715597  0.53594610     0.16900
H3454       H  0.99801597  0.31846238  0.53494268     0.12800
H3455       H  0.99625007  0.31671979  0.46144037     0.15600
H3456       H  0.97323068  0.27551214  0.46312158     0.15400
C3457       C  0.08915385  0.30080656  0.56196911    -0.17500
C3458       C  0.07386449  0.30062572  0.56178326    -0.19600
C3459       C  0.06607027  0.29072835  0.57055844     0.21000
C3460       C  0.07367585  0.28060936  0.57928987    -0.02600
C3461       C  0.08915052  0.28078019  0.57946135    -0.05600
C3462       C  0.09686941  0.29108302  0.57092132     0.21300
C3463       C  0.09687297  0.27093969  0.58845438     0.19400
C3464       C  0.08900168  0.26076104  0.59688418    -0.17100
C3465       C  0.07362654  0.26061924  0.59674451    -0.19300
C3466       C  0.06583104  0.27064004  0.58815333     0.20900
C3467       C  0.05039040  0.27122864  0.58859810    -0.32300
C3468       C  0.04284492  0.28175571  0.58034556     0.01600
C3469       C  0.05079548  0.29114646  0.57107639    -0.23700
C3470       C  0.11216056  0.29175619  0.57172631    -0.28300
C3471       C  0.11996866  0.28231624  0.58097648     0.07300
C3472       C  0.11227960  0.27171419  0.58910422    -0.26900
H3473       H  0.09494268  0.30872602  0.55529860     0.12000
H3474       H  0.06812895  0.30842259  0.55498491     0.13100
H3475       H  0.09473595  0.25306893  0.60379545     0.12200
H3476       H  0.06783202  0.25283540  0.60356236     0.11500
H3477       H  0.04433184  0.26391921  0.59571565     0.16900
H3478       H  0.04509740  0.29917601  0.56450876     0.12800
H3479       H  0.11798394  0.29984226  0.56527515     0.15600
H3480       H  0.11823350  0.26434145  0.59618540     0.15400
C3481       C  0.99561631  0.33772133  0.66875262    -0.17500
C3482       C  0.99619636  0.32701360  0.65779175    -0.19600
C3483       C  0.99484221  0.33090967  0.64300825     0.21000
C3484       C  0.99263900  0.34569327  0.63923579    -0.02600
C3485       C  0.99204757  0.35647819  0.65027690    -0.05600
C3486       C  0.99364412  0.35247793  0.66509388     0.21300
C3487       C  0.99010527  0.37128939  0.64645697     0.19400
C3488       C  0.98848588  0.37515613  0.63170966    -0.17100
C3489       C  0.98902814  0.36445937  0.62076852    -0.19300
C3490       C  0.99123778  0.34974569  0.62441222     0.20900
C3491       C  0.99224552  0.33905002  0.61346577    -0.32300
C3492       C  0.99468858  0.32435135  0.61711407     0.01600
C3493       C  0.99582972  0.32032397  0.63191534    -0.23700
C3494       C  0.99348810  0.36334118  0.67595136    -0.28300
C3495       C  0.99188495  0.37814313  0.67215433     0.07300
C3496       C  0.99006512  0.38201709  0.65741695    -0.26900
H3497       H  0.99683973  0.33447772  0.68008217     0.12000
H3498       H  0.99784624  0.31570437  0.66086637     0.13100
H3499       H  0.98693755  0.38647748  0.62862493     0.12200
H3500       H  0.98787657  0.36771758  0.60943591     0.11500
H3501       H  0.99123512  0.34220377  0.60208249     0.16900
H3502       H  0.99757391  0.30897359  0.63480505     0.12800
H3503       H  0.99497463  0.36030325  0.68731410     0.15600
H3504       H  0.98881345  0.39341417  0.65444588     0.15400
C3505       C  0.68456344  0.18374347  0.49201677    -0.17500
C3506       C  0.68477840  0.18378361  0.50736977    -0.19600
C3507       C  0.69444546  0.17467989  0.51504654     0.21000
C3508       C  0.70400349  0.16546012  0.50712399    -0.02600
C3509       C  0.70384756  0.16548273  0.49163748    -0.05600
C3510       C  0.69404617  0.17463376  0.48402788     0.21300
C3511       C  0.71354694  0.15637487  0.48378610     0.19400
C3512       C  0.72328074  0.14733253  0.49141574    -0.17100
C3513       C  0.72336342  0.14723550  0.50671753    -0.19300
C3514       C  0.71378337  0.15625114  0.51466123     0.20900
C3515       C  0.71394507  0.15629866  0.53000794    -0.32300
C3516       C  0.70460073  0.16555685  0.53804937     0.01600
C3517       C  0.69481915  0.17469636  0.53047056    -0.23700
C3518       C  0.69396946  0.17455031  0.46859725    -0.28300
C3519       C  0.70364448  0.16548558  0.46070480     0.07300
C3520       C  0.71339494  0.15646283  0.46844181    -0.26900
H3521       H  0.67698802  0.19087345  0.48638630     0.12000
H3522       H  0.67737138  0.19095250  0.51324547     0.13100
H3523       H  0.73082152  0.14030013  0.48554100     0.12200
H3524       H  0.73097208  0.14013632  0.51234651     0.11500
H3525       H  0.72154631  0.14923277  0.53570124     0.16900
H3526       H  0.68758895  0.18188029  0.53655558     0.12800
H3527       H  0.68650200  0.18162741  0.46275058     0.15600
H3528       H  0.72096101  0.14949613  0.46250873     0.15400
C3529       C  0.48848170  0.16944497  0.73058185    -0.17500
C3530       C  0.50381605  0.16959148  0.73021686    -0.19600
C3531       C  0.51132429  0.17272090  0.71716502     0.21000
C3532       C  0.50330103  0.17598916  0.70440848    -0.02600
C3533       C  0.48777745  0.17595324  0.70480703    -0.05600
C3534       C  0.48036129  0.17250642  0.71792312     0.21300
C3535       C  0.47969866  0.17913783  0.69204555     0.19400
C3536       C  0.48723826  0.18245184  0.67904985    -0.17100
C3537       C  0.50260944  0.18237454  0.67862717    -0.19300
C3538       C  0.51077209  0.17906673  0.69121539     0.20900
C3539       C  0.52623048  0.17857869  0.69080785    -0.32300
C3540       C  0.53431650  0.17511180  0.70346290     0.01600
C3541       C  0.52670405  0.17238888  0.71662325    -0.23700
C3542       C  0.46497319  0.17196564  0.71812103    -0.28300
C3543       C  0.45679053  0.17490792  0.70540741     0.07300
C3544       C  0.46425915  0.17870244  0.69244869    -0.26900
H3545       H  0.48296825  0.16682363  0.74075768     0.12000
H3546       H  0.50981220  0.16708275  0.74012278     0.13100
H3547       H  0.48123836  0.18494492  0.66914351     0.12200
H3548       H  0.50811783  0.18480894  0.66840458     0.11500
H3549       H  0.53194044  0.18071748  0.68062331     0.16900
H3550       H  0.53275327  0.16972648  0.72646203     0.12800
H3551       H  0.45936164  0.16911491  0.72818791     0.15600
H3552       H  0.45807747  0.18099463  0.68259846     0.15400
C3553       C  0.66829293  0.17542205  0.65739577    -0.17500
C3554       C  0.65703484  0.17522767  0.66780470    -0.19600
C3555       C  0.64229392  0.17525602  0.66340655     0.21000
C3556       C  0.63886062  0.17573079  0.64835946    -0.02600
C3557       C  0.65026198  0.17580667  0.63781363    -0.05600
C3558       C  0.66502822  0.17554670  0.64238651     0.21300
C3559       C  0.64689003  0.17583397  0.62273073     0.19400
C3560       C  0.63212816  0.17620196  0.61836637    -0.17100
C3561       C  0.62083726  0.17625239  0.62881516    -0.19300
C3562       C  0.62406003  0.17586214  0.64385046     0.20900
C3563       C  0.61278572  0.17536203  0.65443495    -0.32300
C3564       C  0.61613482  0.17454449  0.66947508     0.01600
C3565       C  0.63095950  0.17461286  0.67380788    -0.23700
C3566       C  0.67628891  0.17502882  0.63191321    -0.28300
C3567       C  0.67308393  0.17449631  0.61684634     0.07300
C3568       C  0.65831764  0.17514651  0.61233021    -0.26900
H3569       H  0.67957317  0.17524783  0.66109379     0.12000
H3570       H  0.65986694  0.17492409  0.67931718     0.13100
H3571       H  0.62929892  0.17629103  0.60684961     0.12200
H3572       H  0.60955840  0.17640062  0.62511784     0.11500
H3573       H  0.60143132  0.17530291  0.65095478     0.16900
H3574       H  0.63371479  0.17405662  0.68533474     0.12800
H3575       H  0.68758585  0.17457195  0.63554862     0.15600
H3576       H  0.65570497  0.17480891  0.60075969     0.15400
C3577       C  0.85785911  0.29886160  0.49061071    -0.17500
C3578       C  0.85789510  0.29829658  0.50591366    -0.19600
C3579       C  0.84478031  0.29976204  0.51382368     0.21000
C3580       C  0.83152876  0.30212894  0.50626459    -0.02600
C3581       C  0.83151076  0.30281659  0.49079462    -0.05600
C3582       C  0.84471775  0.30098009  0.48294178     0.21300
C3583       C  0.81823616  0.30493977  0.48318733     0.19400
C3584       C  0.80514630  0.30655505  0.49112944    -0.17100
C3585       C  0.80515057  0.30577690  0.50644810    -0.19300
C3586       C  0.81825959  0.30345563  0.51412906     0.20900
C3587       C  0.81830485  0.30212141  0.52948155    -0.32300
C3588       C  0.83146078  0.29946766  0.53706268     0.01600
C3589       C  0.84466534  0.29854054  0.52912796    -0.23700
C3590       C  0.84449575  0.30081802  0.46756612    -0.28300
C3591       C  0.83124029  0.30245099  0.45987373     0.07300
C3592       C  0.81821025  0.30489529  0.46778572    -0.26900
H3593       H  0.86809838  0.29744837  0.48476013     0.12000
H3594       H  0.86816612  0.29648173  0.51155848     0.13100
H3595       H  0.79484822  0.30817923  0.48547580     0.12200
H3596       H  0.79486029  0.30683658  0.51228351     0.11500
H3597       H  0.80807069  0.30281665  0.53548045     0.16900
H3598       H  0.85486206  0.29649208  0.53483673     0.12800
H3599       H  0.85459445  0.29893773  0.46159193     0.15600
H3600       H  0.80793424  0.30610716  0.46197505     0.15400
C3601       C  0.79518146  0.21363066  0.59420205    -0.17500
C3602       C  0.78420114  0.20287750  0.59483990    -0.19600
C3603       C  0.76933124  0.20675576  0.59419015     0.21000
C3604       C  0.76550626  0.22165654  0.59311600    -0.02600
C3605       C  0.77659287  0.23250894  0.59243143    -0.05600
C3606       C  0.79151375  0.22848081  0.59289187     0.21300
C3607       C  0.77272812  0.24736489  0.59103408     0.19400
C3608       C  0.75786990  0.25127758  0.59063255    -0.17100
C3609       C  0.74691309  0.24055539  0.59133901    -0.19300
C3610       C  0.75060830  0.22571282  0.59240967     0.20900
C3611       C  0.73967284  0.21485950  0.59237167    -0.32300
C3612       C  0.74338122  0.19994636  0.59296251     0.01600
C3613       C  0.75824510  0.19600167  0.59420014    -0.23700
C3614       C  0.80246657  0.23934834  0.59184029    -0.28300
C3615       C  0.79868022  0.25418821  0.59018430     0.07300
C3616       C  0.78375707  0.25805376  0.58988224    -0.26900
H3617       H  0.80656216  0.21031022  0.59458893     0.12000
H3618       H  0.78735383  0.19149700  0.59567524     0.13100
H3619       H  0.75471404  0.26264251  0.58962286     0.12200
H3620       H  0.73553312  0.24386601  0.59083153     0.11500
H3621       H  0.72826620  0.21802474  0.59150893     0.16900
H3622       H  0.76122262  0.18454593  0.59467260     0.12800
H3623       H  0.81391602  0.23623235  0.59206305     0.15600
H3624       H  0.78069210  0.26942827  0.58866063     0.15400
C3625       C  0.92358828  0.28531188  0.61709070    -0.17500
C3626       C  0.90830869  0.28619545  0.61661247    -0.19600
C3627       C  0.90048809  0.27974897  0.60503026     0.21000
C3628       C  0.90809351  0.27181720  0.59413130    -0.02600
C3629       C  0.92354126  0.27090610  0.59462182    -0.05600
C3630       C  0.93129131  0.27798619  0.60598804     0.21300
C3631       C  0.93126060  0.26366104  0.58330663     0.19400
C3632       C  0.92338074  0.25684897  0.57196327    -0.17100
C3633       C  0.90805603  0.25769109  0.57151842    -0.19300
C3634       C  0.90033487  0.26538837  0.58238731     0.20900
C3635       C  0.88508020  0.26726561  0.58141600    -0.32300
C3636       C  0.87750866  0.27566028  0.59192576     0.01600
C3637       C  0.88527313  0.28159000  0.60386805    -0.23700
C3638       C  0.94660452  0.27854865  0.60549698    -0.28300
C3639       C  0.95430570  0.27234610  0.59370821     0.07300
C3640       C  0.94668134  0.26427625  0.58301197    -0.26900
H3641       H  0.92941277  0.29077040  0.62590011     0.12000
H3642       H  0.90263509  0.29226126  0.62509938     0.13100
H3643       H  0.92909250  0.25123306  0.56319675     0.12200
H3644       H  0.90226637  0.25264746  0.56244758     0.11500
H3645       H  0.87919982  0.26268280  0.57215593     0.16900
H3646       H  0.87954814  0.28805661  0.61202657     0.12800
H3647       H  0.95251600  0.28484005  0.61369461     0.15600
H3648       H  0.95260839  0.25970943  0.57377806     0.15400
C3649       C  0.50726574  0.31709907  0.82985418    -0.17500
C3650       C  0.49191230  0.31722208  0.83022056    -0.19600
C3651       C  0.48383187  0.30479403  0.82602854     0.21000
C3652       C  0.49132584  0.29217505  0.82120803    -0.02600
C3653       C  0.50683873  0.29200978  0.82094678    -0.05600
C3654       C  0.51485023  0.30451708  0.82536393     0.21300
C3655       C  0.51431621  0.27920819  0.81663344     0.19400
C3656       C  0.50625274  0.26688346  0.81212049    -0.17100
C3657       C  0.49090720  0.26709084  0.81225818    -0.19300
C3658       C  0.48334066  0.27959875  0.81699298     0.20900
C3659       C  0.46796118  0.27961585  0.81794612    -0.32300
C3660       C  0.46039338  0.29201625  0.82313512     0.01600
C3661       C  0.46842779  0.30465369  0.82690664    -0.23700
C3662       C  0.53027358  0.30407685  0.82561533    -0.28300
C3663       C  0.53775929  0.29114482  0.82194027     0.07300
C3664       C  0.52969677  0.27882243  0.81728853    -0.26900
H3665       H  0.51321783  0.32679184  0.83330468     0.12000
H3666       H  0.48635349  0.32700926  0.83394270     0.13100
H3667       H  0.51181820  0.25699729  0.80868141     0.12200
H3668       H  0.48495384  0.25736100  0.80891303     0.11500
H3669       H  0.46189750  0.26983336  0.81495027     0.16900
H3670       H  0.46272555  0.31424842  0.83092197     0.12800
H3671       H  0.53642138  0.31356648  0.82930870     0.15600
H3672       H  0.53541318  0.26884822  0.81436893     0.15400
C3673       C  0.59324009  0.25372709  0.75364101    -0.17500
C3674       C  0.59281663  0.24334015  0.74231543    -0.19600
C3675       C  0.59270374  0.22831499  0.74547518     0.21000
C3676       C  0.59332149  0.22374629  0.76021192    -0.02600
C3677       C  0.59371719  0.23423438  0.77164917    -0.05600
C3678       C  0.59353381  0.24929477  0.76834782     0.21300
C3679       C  0.59395994  0.22963248  0.78638649     0.19400
C3680       C  0.59401154  0.21462220  0.78954661    -0.17100
C3681       C  0.59365808  0.20425423  0.77824023    -0.19300
C3682       C  0.59322044  0.20869419  0.76355730     0.20900
C3683       C  0.59234759  0.19832765  0.75220942    -0.32300
C3684       C  0.59131023  0.20273885  0.73750744     0.01600
C3685       C  0.59166172  0.21778808  0.73421419    -0.23700
C3686       C  0.59327360  0.25963142  0.77980178    -0.28300
C3687       C  0.59317451  0.25512853  0.79454710     0.07300
C3688       C  0.59378148  0.24008947  0.79771312    -0.26900
H3689       H  0.59313222  0.26524460  0.75089468     0.12000
H3690       H  0.59239605  0.24706880  0.73107923     0.13100
H3691       H  0.59417216  0.21088862  0.80078848     0.12200
H3692       H  0.59355921  0.19273778  0.78099629     0.11500
H3693       H  0.59202899  0.18678835  0.75488219     0.16900
H3694       H  0.59088902  0.22131113  0.72292429     0.12800
H3695       H  0.59281727  0.27118417  0.77722519     0.15600
H3696       H  0.59364701  0.23648926  0.80900639     0.15400
C3697       C  0.60005446  0.26513818  0.92499820    -0.17500
C3698       C  0.60086671  0.26455374  0.90965025    -0.19600
C3699       C  0.59066987  0.27209563  0.90099655     0.21000
C3700       C  0.57933971  0.28000769  0.90794947    -0.02600
C3701       C  0.57844206  0.28048330  0.92340176    -0.05600
C3702       C  0.58896766  0.27319269  0.93201164     0.21300
C3703       C  0.56720656  0.28859542  0.93021549     0.19400
C3704       C  0.55683723  0.29591898  0.92164572    -0.17100
C3705       C  0.55778430  0.29553618  0.90640136    -0.19300
C3706       C  0.56907203  0.28776154  0.89947900     0.20900
C3707       C  0.57041461  0.28792612  0.88423213    -0.32300
C3708       C  0.58183079  0.28040671  0.87714704     0.01600
C3709       C  0.59177121  0.27221159  0.88557226    -0.23700
C3710       C  0.58844289  0.27448784  0.94741580    -0.28300
C3711       C  0.57752065  0.28302220  0.95420490     0.07300
C3712       C  0.56676204  0.28968478  0.94547921    -0.26900
H3713       H  0.60822044  0.25943220  0.93138545     0.12000
H3714       H  0.60963076  0.25839509  0.90454986     0.13100
H3715       H  0.54813686  0.30217582  0.92674294     0.12200
H3716       H  0.54979040  0.30149227  0.90002115     0.11500
H3717       H  0.56260851  0.29413599  0.87784694     0.16900
H3718       H  0.60060570  0.26638838  0.88019243     0.12800
H3719       H  0.59681756  0.26936778  0.95403790     0.15600
H3720       H  0.55825555  0.29622915  0.95055974     0.15400
C3721       C  0.65939229  0.32595036  0.83293827    -0.17500
C3722       C  0.67008192  0.33701600  0.83293395    -0.19600
C3723       C  0.66614567  0.35169810  0.83076643     0.21000
C3724       C  0.65125067  0.35523999  0.82870703    -0.02600
C3725       C  0.64044269  0.34405336  0.82872083    -0.05600
C3726       C  0.64454247  0.32933226  0.83077672     0.21300
C3727       C  0.62555308  0.34761112  0.82661253     0.19400
C3728       C  0.62159165  0.36230254  0.82468687    -0.17100
C3729       C  0.63227124  0.37335286  0.82466274    -0.19300
C3730       C  0.64714104  0.36995189  0.82656972     0.20900
C3731       C  0.65793890  0.38100454  0.82634671    -0.32300
C3732       C  0.67284883  0.37761579  0.82832871     0.01600
C3733       C  0.67682181  0.36288290  0.83059698    -0.23700
C3734       C  0.63374378  0.31827231  0.83059346    -0.28300
C3735       C  0.61885280  0.32170138  0.82834784     0.07300
C3736       C  0.61488836  0.33644481  0.82642310    -0.26900
H3737       H  0.66275817  0.31472317  0.83458039     0.12000
H3738       H  0.68145452  0.33407442  0.83457546     0.13100
H3739       H  0.61021099  0.36525463  0.82312147     0.12200
H3740       H  0.62889121  0.38458353  0.82308076     0.11500
H3741       H  0.65471252  0.39227689  0.82470365     0.16900
H3742       H  0.68824655  0.36009861  0.83219358     0.12800
H3743       H  0.63694900  0.30698453  0.83217794     0.15600
H3744       H  0.60347401  0.33925388  0.82479554     0.15400
C3745       C  0.71489685  0.44096310  0.90772813    -0.17500
C3746       C  0.71574048  0.44108922  0.92302563    -0.19600
C3747       C  0.71908125  0.42825852  0.93071300     0.21000
C3748       C  0.72216962  0.41529871  0.92290147    -0.02600
C3749       C  0.72137993  0.41518736  0.90741355    -0.05600
C3750       C  0.71743960  0.42801550  0.89983016     0.21300
C3751       C  0.72402617  0.40213072  0.89956942     0.19400
C3752       C  0.72775644  0.38940812  0.90726793    -0.17100
C3753       C  0.72843605  0.38949510  0.92260879    -0.19300
C3754       C  0.72545557  0.40232382  0.93057425     0.20900
C3755       C  0.72499587  0.40225873  0.94603037    -0.32300
C3756       C  0.72106916  0.41497173  0.95385081     0.01600
C3757       C  0.71865700  0.42802096  0.94606814    -0.23700
C3758       C  0.71568701  0.42757437  0.88454422    -0.28300
C3759       C  0.71795775  0.41450988  0.87665811     0.07300
C3760       C  0.72245835  0.40191726  0.88423322    -0.26900
H3761       H  0.71196025  0.45093539  0.90209001     0.12000
H3762       H  0.71339904  0.45115193  0.92887057     0.13100
H3763       H  0.72985410  0.37928669  0.90143336     0.12200
H3764       H  0.73100386  0.37943057  0.92826005     0.11500
H3765       H  0.72678618  0.39213845  0.95189304     0.16900
H3766       H  0.71570237  0.43789772  0.95196716     0.12800
H3767       H  0.71231357  0.43735617  0.87880327     0.15600
H3768       H  0.72419134  0.39179943  0.87825979     0.15400
C3769       C  0.81569568  0.34076176  0.66497322    -0.17500
C3770       C  0.81584634  0.33006129  0.65399334    -0.19600
C3771       C  0.82124648  0.33331115  0.63998701     0.21000
C3772       C  0.82643833  0.34753146  0.63694742    -0.02600
C3773       C  0.82624473  0.35838664  0.64806150    -0.05600
C3774       C  0.82090827  0.35493262  0.66214835     0.21300
C3775       C  0.83147324  0.37262477  0.64512275     0.19400
C3776       C  0.83685946  0.37584438  0.63106784    -0.17100
C3777       C  0.83709482  0.36507363  0.62006725    -0.19300
C3778       C  0.83192500  0.35085465  0.62287770     0.20900
C3779       C  0.83228766  0.33985464  0.61198237    -0.32300
C3780       C  0.82729363  0.32556137  0.61504818     0.01600
C3781       C  0.82168967  0.32249477  0.62906613    -0.23700
C3782       C  0.82094960  0.36564503  0.67321915    -0.28300
C3783       C  0.82614138  0.37989007  0.67046391     0.07300
C3784       C  0.83131268  0.38331397  0.65631439    -0.26900
H3785       H  0.81154097  0.33792798  0.67571538     0.12000
H3786       H  0.81181343  0.31919081  0.65649502     0.13100
H3787       H  0.84095028  0.38669688  0.62858856     0.12200
H3788       H  0.84137112  0.36786271  0.60936143     0.11500
H3789       H  0.83668324  0.34234180  0.60124394     0.16900
H3790       H  0.81780294  0.31156774  0.63157723     0.12800
H3791       H  0.81693541  0.36286355  0.68403533     0.15600
H3792       H  0.83542140  0.39421799  0.65407662     0.15400
C3793       C  0.74262938  0.40375057  0.75455057    -0.17500
C3794       C  0.75340568  0.40372501  0.74359954    -0.19600
C3795       C  0.76832380  0.40273366  0.74725268     0.21000
C3796       C  0.77236269  0.40132625  0.76209368    -0.02600
C3797       C  0.76146607  0.40136209  0.77316898    -0.05600
C3798       C  0.74654648  0.40278691  0.76938204     0.21300
C3799       C  0.76554143  0.40034818  0.78803484     0.19400
C3800       C  0.78041479  0.39886520  0.79166040    -0.17100
C3801       C  0.79118542  0.39881676  0.78071127    -0.19300
C3802       C  0.78730670  0.40026059  0.76590973     0.20900
C3803       C  0.79812287  0.40104270  0.75492312    -0.32300
C3804       C  0.79425335  0.40296877  0.74011609     0.01600
C3805       C  0.77926771  0.40351236  0.73637853    -0.23700
C3806       C  0.73585721  0.40359857  0.78048328    -0.28300
C3807       C  0.73986272  0.40310769  0.79537580     0.07300
C3808       C  0.75473719  0.40120798  0.79901833    -0.26900
H3809       H  0.73122690  0.40477038  0.75142089     0.12000
H3810       H  0.75007468  0.40472723  0.73226634     0.13100
H3811       H  0.78375175  0.39798269  0.80300308     0.12200
H3812       H  0.80259330  0.39789878  0.78385210     0.11500
H3813       H  0.80959081  0.40055037  0.75796645     0.16900
H3814       H  0.77611394  0.40492858  0.72503580     0.12800
H3815       H  0.72445019  0.40502061  0.77751893     0.15600
H3816       H  0.75796705  0.40075670  0.81042493     0.15400
C3817       C  0.90651385  0.43966657  0.71907600    -0.17500
C3818       C  0.92183858  0.43972469  0.72001895    -0.19600
C3819       C  0.92955858  0.42658498  0.72177047     0.21000
C3820       C  0.92173027  0.41333730  0.72326346    -0.02600
C3821       C  0.90623742  0.41328371  0.72233541    -0.05600
C3822       C  0.89862744  0.42647100  0.71990790     0.21300
C3823       C  0.89842037  0.39996572  0.72329383     0.19400
C3824       C  0.90613362  0.38689641  0.72547433    -0.17100
C3825       C  0.92146682  0.38693725  0.72630080    -0.19300
C3826       C  0.92940011  0.40005809  0.72502095     0.20900
C3827       C  0.94484165  0.40003915  0.72468589    -0.32300
C3828       C  0.95266034  0.41307688  0.72221276     0.01600
C3829       C  0.94494839  0.42635579  0.72123616    -0.23700
C3830       C  0.88333883  0.42616136  0.71791326    -0.28300
C3831       C  0.87549680  0.41286522  0.71853238     0.07300
C3832       C  0.88309367  0.39987430  0.72158911    -0.26900
H3833       H  0.90085167  0.44991328  0.71735558     0.12000
H3834       H  0.92767780  0.45000989  0.71896042     0.13100
H3835       H  0.90031675  0.37657310  0.72623682     0.12200
H3836       H  0.92714282  0.37664096  0.72763637     0.11500
H3837       H  0.95070909  0.38976517  0.72523123     0.16900
H3838       H  0.95093324  0.43643594  0.71929313     0.12800
H3839       H  0.87755958  0.43624470  0.71565815     0.15600
H3840       H  0.87714985  0.38959507  0.72202654     0.15400
C3841       C  0.48905641  0.99335948  0.66817764    -0.17500
C3842       C  0.50439700  0.99320878  0.66815739    -0.19600
C3843       C  0.51214843  0.98995321  0.68099884     0.21000
C3844       C  0.50436648  0.98630221  0.69385092    -0.02600
C3845       C  0.48892546  0.98648820  0.69388040    -0.05600
C3846       C  0.48122814  0.99027794  0.68104407     0.21300
C3847       C  0.48121884  0.98339632  0.70690760     0.19400
C3848       C  0.48891661  0.97960590  0.71961042    -0.17100
C3849       C  0.50420971  0.97939548  0.71957315    -0.19300
C3850       C  0.51200510  0.98299513  0.70683958     0.20900
C3851       C  0.52729275  0.98390396  0.70704777    -0.32300
C3852       C  0.53509181  0.98824248  0.69451041     0.01600
C3853       C  0.52750523  0.99083271  0.68138932    -0.23700
C3854       C  0.46589293  0.99142219  0.68146935    -0.28300
C3855       C  0.45827072  0.98901777  0.69462626     0.07300
C3856       C  0.46597300  0.98464400  0.70717066    -0.26900
H3857       H  0.48332230  0.99621166  0.65821266     0.12000
H3858       H  0.51020130  0.99595554  0.65817877     0.13100
H3859       H  0.48311649  0.97712259  0.72966339     0.12200
H3860       H  0.50994509  0.97675968  0.72960032     0.11500
H3861       H  0.53308772  0.98174306  0.71716598     0.16900
H3862       H  0.53348312  0.99411441  0.67167156     0.12800
H3863       H  0.45997334  0.99473528  0.67175377     0.15600
H3864       H  0.46012939  0.98259476  0.71730687     0.15400
C3865       C  0.60544075  0.09064869  0.72336473    -0.17500
C3866       C  0.60530831  0.07528605  0.72307938    -0.19600
C3867       C  0.59338730  0.06759169  0.71702251     0.21000
C3868       C  0.58139766  0.07552850  0.71140863    -0.02600
C3869       C  0.58156143  0.09099794  0.71163270    -0.05600
C3870       C  0.59369010  0.09863807  0.71752716     0.21300
C3871       C  0.56969577  0.09880332  0.70564133     0.19400
C3872       C  0.55763332  0.09118872  0.69987181    -0.17100
C3873       C  0.55745502  0.07592696  0.69968510    -0.19300
C3874       C  0.56933603  0.06802763  0.70526341     0.20900
C3875       C  0.56943590  0.05275583  0.70449060    -0.32300
C3876       C  0.58141715  0.04468864  0.70972730     0.01600
C3877       C  0.59331714  0.05216254  0.71619155    -0.23700
C3878       C  0.59396690  0.11407784  0.71710367    -0.28300
C3879       C  0.58236826  0.12185482  0.71059063     0.07300
C3880       C  0.57020078  0.11408866  0.70515438    -0.26900
H3881       H  0.61484560  0.09628501  0.72796319     0.12000
H3882       H  0.61460851  0.06942383  0.72747042     0.13100
H3883       H  0.54841509  0.09704533  0.69529863     0.12200
H3884       H  0.54809657  0.07029477  0.69497982     0.11500
H3885       H  0.56019547  0.04712708  0.69953286     0.16900
H3886       H  0.60264457  0.04603624  0.72015535     0.12800
H3887       H  0.60337722  0.11998403  0.72135306     0.15600
H3888       H  0.56113599  0.11997057  0.70029525     0.15400
C3889       C  0.72361406  0.01760474  0.49017425    -0.17500
C3890       C  0.72415246  0.01730726  0.50543630    -0.19600
C3891       C  0.71166708  0.01348520  0.51355114     0.21000
C3892       C  0.69839312  0.01028298  0.50628269    -0.02600
C3893       C  0.69786139  0.01053906  0.49086123    -0.05600
C3894       C  0.71059719  0.01403600  0.48281110     0.21300
C3895       C  0.68476716  0.00677560  0.48350283     0.19400
C3896       C  0.67219161  0.00329774  0.49166856    -0.17100
C3897       C  0.67270711  0.00309249  0.50698844    -0.19300
C3898       C  0.68581024  0.00634053  0.51439147     0.20900
C3899       C  0.68671266  0.00525592  0.52970291    -0.32300
C3900       C  0.70007691  0.00794804  0.53692349     0.01600
C3901       C  0.71238835  0.01236400  0.52878424    -0.23700
C3902       C  0.71029846  0.01330114  0.46753703    -0.28300
C3903       C  0.69754881  0.00879728  0.46014014     0.07300
C3904       C  0.68467541  0.00596991  0.46814428    -0.26900
H3905       H  0.73347128  0.02031468  0.48411831     0.12000
H3906       H  0.73441000  0.01981133  0.51088682     0.13100
H3907       H  0.66203650  0.00043676  0.48620220     0.12200
H3908       H  0.66293186  0.00009640  0.51303786     0.11500
H3909       H  0.67717368  0.00185864  0.53592511     0.16900
H3910       H  0.72271522  0.01451694  0.53426536     0.12800
H3911       H  0.72024300  0.01560018  0.46143991     0.15600
H3912       H  0.67478971  0.00256180  0.46248491     0.15400
C3913       C  0.74216510  0.08951780  0.58563484    -0.17500
C3914       C  0.74222607  0.07416107  0.58557227    -0.19600
C3915       C  0.73057909  0.06623377  0.59181160     0.21000
C3916       C  0.71902595  0.07393703  0.59864341    -0.02600
C3917       C  0.71892948  0.08941872  0.59865035    -0.05600
C3918       C  0.73043054  0.09726738  0.59189480     0.21300
C3919       C  0.70699141  0.09701088  0.60488306     0.19400
C3920       C  0.69560625  0.08916155  0.61159448    -0.17100
C3921       C  0.69572113  0.07388238  0.61162114    -0.19300
C3922       C  0.70722158  0.06618942  0.60493210     0.20900
C3923       C  0.70673556  0.05090929  0.60385695    -0.32300
C3924       C  0.71774363  0.04311042  0.59636884     0.01600
C3925       C  0.72990929  0.05082346  0.59076732    -0.23700
C3926       C  0.72963667  0.11264458  0.59097839    -0.28300
C3927       C  0.71731082  0.12016105  0.59644875     0.07300
C3928       C  0.70628055  0.11227232  0.60374642    -0.26900
H3929       H  0.75112915  0.09533101  0.58044579     0.12000
H3930       H  0.75123139  0.06848351  0.58033196     0.13100
H3931       H  0.68641006  0.09483623  0.61650011     0.12200
H3932       H  0.68660373  0.06807213  0.61654635     0.11500
H3933       H  0.69734420  0.04511797  0.60828922     0.16900
H3934       H  0.73841125  0.04494792  0.58492659     0.12800
H3935       H  0.73819078  0.11865625  0.58533469     0.15600
H3936       H  0.69684262  0.11799269  0.60813014     0.15400
C3937       C  0.61868101  0.99347075  0.62530497    -0.17500
C3938       C  0.62992510  0.99263445  0.61492321    -0.19600
C3939       C  0.64463522  0.99218809  0.61937535     0.21000
C3940       C  0.64805192  0.99227519  0.63444247    -0.02600
C3941       C  0.63673150  0.99325494  0.64489799    -0.05600
C3942       C  0.62197850  0.99396758  0.64029468     0.21300
C3943       C  0.64019929  0.99375368  0.65993685     0.19400
C3944       C  0.65486789  0.99289755  0.66442940    -0.17100
C3945       C  0.66608611  0.99185135  0.65406492    -0.19300
C3946       C  0.66279442  0.99169085  0.63906340     0.20900
C3947       C  0.67400876  0.99132943  0.62860221    -0.32300
C3948       C  0.67071259  0.99179471  0.61357680     0.01600
C3949       C  0.65599902  0.99200196  0.60903292    -0.23700
C3950       C  0.61081063  0.99532592  0.65075320    -0.28300
C3951       C  0.61425638  0.99613111  0.66571253     0.07300
C3952       C  0.62895229  0.99523850  0.67022365    -0.26900
H3953       H  0.60741298  0.99393227  0.62160021     0.12000
H3954       H  0.62712241  0.99249765  0.60339860     0.13100
H3955       H  0.65767361  0.99318262  0.67595368     0.12200
H3956       H  0.67735201  0.99137453  0.65777524     0.11500
H3957       H  0.68533492  0.99120814  0.63218407     0.16900
H3958       H  0.65339950  0.99231281  0.59745937     0.12800
H3959       H  0.59947726  0.99589999  0.64724842     0.15600
H3960       H  0.63166365  0.99565685  0.68177447     0.15400
C3961       C  0.67567689  0.82882054  0.49141569    -0.17500
C3962       C  0.67524742  0.82898389  0.50678467    -0.19600
C3963       C  0.68796398  0.82629088  0.51500750     0.21000
C3964       C  0.70123175  0.82336749  0.50758555    -0.02600
C3965       C  0.70165840  0.82316684  0.49207717    -0.05600
C3966       C  0.68882798  0.82593336  0.48392748     0.21300
C3967       C  0.71498737  0.82037361  0.48474734     0.19400
C3968       C  0.72771634  0.81771433  0.49290912    -0.17100
C3969       C  0.72730122  0.81794271  0.50821061    -0.19300
C3970       C  0.71414602  0.82081438  0.51564496     0.20900
C3971       C  0.71377665  0.82136851  0.53099410    -0.32300
C3972       C  0.70067086  0.82438464  0.53857083     0.01600
C3973       C  0.68773177  0.82667666  0.53047325    -0.23700
C3974       C  0.68945420  0.82597229  0.46847998    -0.28300
C3975       C  0.70279959  0.82340608  0.46110681     0.07300
C3976       C  0.71545511  0.82049966  0.46939203    -0.26900
H3977       H  0.66571296  0.83101816  0.48538040     0.12000
H3978       H  0.66496162  0.83130183  0.51224474     0.13100
H3979       H  0.73804083  0.81555790  0.48745021     0.12200
H3980       H  0.73731567  0.81595678  0.51424158     0.11500
H3981       H  0.72380544  0.81955668  0.53707180     0.16900
H3982       H  0.67759918  0.82910790  0.53617483     0.12800
H3983       H  0.67965683  0.82832301  0.46222720     0.15600
H3984       H  0.72579187  0.81851426  0.46387673     0.15400
C3985       C  0.73127819  0.92317567  0.60658643    -0.17500
C3986       C  0.72959350  0.90794234  0.60753195    -0.19600
C3987       C  0.72382271  0.89987924  0.59572623     0.21000
C3988       C  0.72026822  0.90722534  0.58263454    -0.02600
C3989       C  0.72215975  0.92256155  0.58161223    -0.05600
C3990       C  0.72732726  0.93064894  0.59377899     0.21300
C3991       C  0.71819588  0.92986886  0.56864269     0.19400
C3992       C  0.71298347  0.92178665  0.55662021    -0.17100
C3993       C  0.71098863  0.90666166  0.55767630    -0.19300
C3994       C  0.71430239  0.89934231  0.57072411     0.20900
C3995       C  0.71141401  0.88434663  0.57214961    -0.32300
C3996       C  0.71464338  0.87693863  0.58521276     0.01600
C3997       C  0.72117275  0.88470776  0.59687340    -0.23700
C3998       C  0.72758428  0.94607347  0.59320785    -0.28300
C3999       C  0.72253628  0.95342749  0.58067662     0.07300
C4000       C  0.71859685  0.94519009  0.56821165    -0.26900
H4001       H  0.73533398  0.92915777  0.61602060     0.12000
H4002       H  0.73246177  0.90251398  0.61764817     0.13100
H4003       H  0.70997243  0.92723294  0.54655267     0.12200
H4004       H  0.70654809  0.90073125  0.54838015     0.11500
H4005       H  0.70658263  0.87840846  0.56304292     0.16900
H4006       H  0.72372611  0.87906290  0.60696188     0.12800
H4007       H  0.73063932  0.95231348  0.60285538     0.15600
H4008       H  0.71484222  0.95074089  0.55844575     0.15400
C4009       C  0.82049935  0.73004556  0.49285838    -0.17500
C4010       C  0.82148259  0.73057081  0.50811481    -0.19600
C4011       C  0.82107660  0.71764460  0.51633656     0.21000
C4012       C  0.81967847  0.70403472  0.50911956    -0.02600
C4013       C  0.81875847  0.70349738  0.49367065    -0.05600
C4014       C  0.81919652  0.71658029  0.48555188     0.21300
C4015       C  0.81762319  0.68989842  0.48635486     0.19400
C4016       C  0.81727273  0.67697526  0.49461619    -0.17100
C4017       C  0.81810464  0.67751291  0.50994405    -0.19300
C4018       C  0.81932058  0.69098318  0.51731950     0.20900
C4019       C  0.82023221  0.69165572  0.53271447    -0.32300
C4020       C  0.82159654  0.70522271  0.53998504     0.01600
C4021       C  0.82206599  0.71813388  0.53164846    -0.23700
C4022       C  0.81874489  0.71599823  0.47024582    -0.28300
C4023       C  0.81813746  0.70251254  0.46279744     0.07300
C4024       C  0.81725918  0.68948198  0.47093155    -0.26900
H4025       H  0.82090199  0.74018094  0.48675786     0.12000
H4026       H  0.82257535  0.74110517  0.51349129     0.13100
H4027       H  0.81644694  0.66643024  0.48921710     0.12200
H4028       H  0.81785127  0.66737067  0.51603429     0.11500
H4029       H  0.81998916  0.68163647  0.53901344     0.16900
H4030       H  0.82318867  0.72863914  0.53708986     0.12800
H4031       H  0.81935326  0.72610730  0.46410417     0.15600
H4032       H  0.81680520  0.67903936  0.46528445     0.15400
C4033       C  0.77723034  0.79291175  0.60057254    -0.17500
C4034       C  0.78822527  0.78224159  0.60100874    -0.19600
C4035       C  0.78489138  0.76747265  0.59823992     0.21000
C4036       C  0.77025887  0.76344189  0.59513673    -0.02600
C4037       C  0.75915380  0.77424015  0.59462255    -0.05600
C4038       C  0.76266573  0.78905058  0.59732963     0.21300
C4039       C  0.74458335  0.77022561  0.59123628     0.19400
C4040       C  0.74122645  0.75545847  0.58852856    -0.17100
C4041       C  0.75218326  0.74478133  0.58910870    -0.19300
C4042       C  0.76674278  0.74865469  0.59232984     0.20900
C4043       C  0.77787239  0.73804150  0.59245550    -0.32300
C4044       C  0.79259457  0.74197032  0.59511265     0.01600
C4045       C  0.79595428  0.75673085  0.59820938    -0.23700
C4046       C  0.75160196  0.79974085  0.59660991    -0.28300
C4047       C  0.73702963  0.79586865  0.59313792     0.07300
C4048       C  0.73365242  0.78103388  0.59049887    -0.26900
H4049       H  0.78015010  0.80422385  0.60267865     0.12000
H4050       H  0.79937919  0.78556975  0.60341487     0.13100
H4051       H  0.73011272  0.75215967  0.58590428     0.12200
H4052       H  0.74928194  0.73348422  0.58689512     0.11500
H4053       H  0.77510823  0.72674698  0.59003484     0.16900
H4054       H  0.80722158  0.75991872  0.60027529     0.12800
H4055       H  0.75438746  0.81111482  0.59858067     0.15600
H4056       H  0.72251994  0.77789365  0.58774216     0.15400
C4057       C  0.92204875  0.72450518  0.61324835    -0.17500
C4058       C  0.90665349  0.72489219  0.61336514    -0.19600
C4059       C  0.89858082  0.72096321  0.60083770     0.21000
C4060       C  0.90619225  0.71694383  0.58797097    -0.02600
C4061       C  0.92171979  0.71658832  0.58784175    -0.05600
C4062       C  0.92972060  0.72022131  0.60059010     0.21300
C4063       C  0.92920539  0.71219557  0.57504597     0.19400
C4064       C  0.92121548  0.70860683  0.56240689    -0.17100
C4065       C  0.90590320  0.70895798  0.56253580    -0.19300
C4066       C  0.89829781  0.71290374  0.57530424     0.20900
C4067       C  0.88293871  0.71250478  0.57567389    -0.32300
C4068       C  0.87517229  0.71607815  0.58851941     0.01600
C4069       C  0.88308587  0.72060253  0.60101732    -0.23700
C4070       C  0.94517195  0.71907146  0.60054000    -0.28300
C4071       C  0.95263166  0.71413884  0.58793517     0.07300
C4072       C  0.94452147  0.71100841  0.57519242    -0.26900
H4073       H  0.92795367  0.72736353  0.62314587     0.12000
H4074       H  0.90105197  0.72805051  0.62334711     0.13100
H4075       H  0.92680985  0.70527384  0.55247456     0.12200
H4076       H  0.89999475  0.70589921  0.55269610     0.11500
H4077       H  0.87700795  0.70912547  0.56594267     0.16900
H4078       H  0.87723283  0.72339055  0.61097011     0.12800
H4079       H  0.95130104  0.72138082  0.61044758     0.15600
H4080       H  0.95014032  0.70724673  0.56541662     0.15400
C4081       C  0.48892352  0.85568493  0.69125642    -0.17500
C4082       C  0.50428032  0.85575048  0.69182545    -0.19600
C4083       C  0.51192420  0.84363297  0.69729259     0.21000
C4084       C  0.50396728  0.83130342  0.70217255    -0.02600
C4085       C  0.48846766  0.83120747  0.70152780    -0.05600
C4086       C  0.48090142  0.84348154  0.69609299     0.21300
C4087       C  0.48055457  0.81889451  0.70649214     0.19400
C4088       C  0.48816399  0.80678972  0.71199270    -0.17100
C4089       C  0.50348116  0.80690831  0.71268383    -0.19300
C4090       C  0.51147738  0.81911414  0.70784771     0.20900
C4091       C  0.52683691  0.81936917  0.70873421    -0.32300
C4092       C  0.53490651  0.83159854  0.70393525     0.01600
C4093       C  0.52734701  0.84367531  0.69812780    -0.23700
C4094       C  0.46546969  0.84341532  0.69580098    -0.28300
C4095       C  0.45749474  0.83123066  0.70089266     0.07300
C4096       C  0.46517235  0.81897338  0.70610287    -0.26900
H4097       H  0.48331408  0.86521899  0.68707484     0.12000
H4098       H  0.51018219  0.86533037  0.68805903     0.13100
H4099       H  0.48225744  0.79725342  0.71586459     0.12200
H4100       H  0.50907895  0.79745742  0.71706621     0.11500
H4101       H  0.53252012  0.81003091  0.71326151     0.16900
H4102       H  0.53343903  0.85320511  0.69451845     0.12800
H4103       H  0.45967428  0.85296179  0.69189470     0.15600
H4104       H  0.45916534  0.80956645  0.71015287     0.15400
C4105       C  0.66550312  0.83003440  0.66085865    -0.17500
C4106       C  0.65478135  0.83004085  0.67182519    -0.19600
C4107       C  0.63991597  0.82830234  0.66824651     0.21000
C4108       C  0.63579805  0.82653735  0.65346445    -0.02600
C4109       C  0.64666562  0.82650421  0.64235546    -0.05600
C4110       C  0.66157597  0.82826779  0.64609549     0.21300
C4111       C  0.64261423  0.82479002  0.62753413     0.19400
C4112       C  0.62770194  0.82314762  0.62399494    -0.17100
C4113       C  0.61693817  0.82321529  0.63499135    -0.19300
C4114       C  0.62084393  0.82490925  0.64977829     0.20900
C4115       C  0.61009823  0.82515581  0.66091365    -0.32300
C4116       C  0.61414863  0.82699520  0.67569711     0.01600
C4117       C  0.62912355  0.82845615  0.67920564    -0.23700
C4118       C  0.67231448  0.82831876  0.63503668    -0.28300
C4119       C  0.66846059  0.82663479  0.62017858     0.07300
C4120       C  0.65352422  0.82483663  0.61654549    -0.26900
H4121       H  0.67689223  0.83143139  0.66393330     0.12000
H4122       H  0.65812545  0.83145126  0.68312555     0.13100
H4123       H  0.62434493  0.82184281  0.61268947     0.12200
H4124       H  0.60553404  0.82197148  0.63191181     0.11500
H4125       H  0.59861321  0.82408822  0.65806214     0.16900
H4126       H  0.63242026  0.82995371  0.69051492     0.12800
H4127       H  0.68372663  0.82975884  0.63802630     0.15600
H4128       H  0.65037592  0.82360314  0.60516813     0.15400
C4129       C  0.57148283  0.92666210  0.73756003    -0.17500
C4130       C  0.57113775  0.91135966  0.73827160    -0.19600
C4131       C  0.58161061  0.90296157  0.73076339     0.21000
C4132       C  0.59285026  0.91009754  0.72287077    -0.02600
C4133       C  0.59317481  0.92553208  0.72211352    -0.05600
C4134       C  0.58228939  0.93385437  0.72930316     0.21300
C4135       C  0.60394156  0.93258172  0.71353586     0.19400
C4136       C  0.61470559  0.92424781  0.70641056    -0.17100
C4137       C  0.61444402  0.90898521  0.70724977    -0.19300
C4138       C  0.60337843  0.90181098  0.71516916     0.20900
C4139       C  0.60228794  0.88651263  0.71496546    -0.32300
C4140       C  0.59073498  0.87930734  0.72223135     0.01600
C4141       C  0.58067580  0.88759274  0.73047160    -0.23700
C4142       C  0.58191331  0.94911199  0.72739863    -0.28300
C4143       C  0.59201183  0.95599598  0.71804405     0.07300
C4144       C  0.60325277  0.94774590  0.71153227    -0.26900
H4145       H  0.56304512  0.93285889  0.74314721     0.12000
H4146       H  0.56245451  0.90607996  0.74441588     0.13100
H4147       H  0.62308867  0.92951400  0.69985056     0.12200
H4148       H  0.62265295  0.90277370  0.70134277     0.11500
H4149       H  0.61012994  0.88023316  0.70863045     0.16900
H4150       H  0.57172226  0.88214091  0.73606725     0.12800
H4151       H  0.57309150  0.95543294  0.73221438     0.15600
H4152       H  0.61100395  0.95305707  0.70425386     0.15400
C4153       C  0.49542042  0.72028530  0.85149927    -0.17500
C4154       C  0.51073238  0.72015891  0.85211589    -0.19600
C4155       C  0.51887608  0.71229380  0.84171068     0.21000
C4156       C  0.51153360  0.70437077  0.83063086    -0.02600
C4157       C  0.49603063  0.70444667  0.83004464    -0.05600
C4158       C  0.48797133  0.71250352  0.84049663     0.21300
C4159       C  0.48861547  0.69655951  0.81896687     0.19400
C4160       C  0.49680813  0.68865707  0.80859883    -0.17100
C4161       C  0.51217490  0.68864081  0.80913751    -0.19300
C4162       C  0.51966903  0.69648892  0.82008369     0.20900
C4163       C  0.53511757  0.69673918  0.82059862    -0.32300
C4164       C  0.54250085  0.70476337  0.83155892     0.01600
C4165       C  0.53423518  0.71238654  0.84212459    -0.23700
C4166       C  0.47260929  0.71271277  0.83975445    -0.28300
C4167       C  0.46506376  0.70490801  0.82875556     0.07300
C4168       C  0.47317459  0.69679684  0.81841608    -0.26900
H4169       H  0.48939739  0.72651120  0.85962054     0.12000
H4170       H  0.51621509  0.72629898  0.86069419     0.13100
H4171       H  0.49132705  0.68253287  0.80001147     0.12200
H4172       H  0.51820453  0.68251573  0.80094672     0.11500
H4173       H  0.54137019  0.69086229  0.81238598     0.16900
H4174       H  0.53976796  0.71862195  0.85061016     0.12800
H4175       H  0.46651335  0.71900206  0.84778077     0.15600
H4176       H  0.46748970  0.69079398  0.80986932     0.15400
C4177       C  0.59875881  0.78540653  0.79567492    -0.17500
C4178       C  0.59807440  0.79622553  0.78488302    -0.19600
C4179       C  0.59637849  0.79239739  0.77007715     0.21000
C4180       C  0.59572372  0.77748450  0.76607372    -0.02600
C4181       C  0.59640503  0.76654703  0.77698427    -0.05600
C4182       C  0.59778777  0.77053586  0.79187470     0.21300
C4183       C  0.59537452  0.75165035  0.77301397     0.19400
C4184       C  0.59404955  0.74780302  0.75817155    -0.17100
C4185       C  0.59340707  0.75862150  0.74737668    -0.19300
C4186       C  0.59402990  0.77350260  0.75121979     0.20900
C4187       C  0.59257464  0.78445877  0.74054093    -0.32300
C4188       C  0.59267454  0.79938256  0.74451040     0.01600
C4189       C  0.59491386  0.80322315  0.75928497    -0.23700
C4190       C  0.59788447  0.75961688  0.80270654    -0.28300
C4191       C  0.59647985  0.74473859  0.79886522     0.07300
C4192       C  0.59539697  0.74087840  0.78395290    -0.26900
H4193       H  0.59986238  0.78868831  0.80703333     0.12000
H4194       H  0.59864791  0.80761878  0.78815335     0.13100
H4195       H  0.59331518  0.73641304  0.75491810     0.12200
H4196       H  0.59217534  0.75534528  0.73602922     0.11500
H4197       H  0.59095562  0.78134738  0.72919035     0.16900
H4198       H  0.59511022  0.81465770  0.76246551     0.12800
H4199       H  0.59866848  0.76272880  0.81414460     0.15600
H4200       H  0.59433465  0.72946615  0.78084995     0.15400
C4201       C  0.58587125  0.74460157  0.92529345    -0.17500
C4202       C  0.58570512  0.74406589  0.90990771    -0.19600
C4203       C  0.59228184  0.73238600  0.90231530     0.21000
C4204       C  0.59952794  0.72142794  0.91035474    -0.02600
C4205       C  0.59990588  0.72210068  0.92584406    -0.05600
C4206       C  0.59274894  0.73354662  0.93341986     0.21300
C4207       C  0.60699770  0.71097824  0.93374764     0.19400
C4208       C  0.61388825  0.69949289  0.92622939    -0.17100
C4209       C  0.61332803  0.69871652  0.91097473    -0.19300
C4210       C  0.60603374  0.70951298  0.90295837     0.20900
C4211       C  0.60488353  0.70836795  0.88770252    -0.32300
C4212       C  0.59747988  0.71903802  0.87954419     0.01600
C4213       C  0.59143221  0.73121479  0.88690651    -0.23700
C4214       C  0.59203297  0.73329089  0.94890736    -0.28300
C4215       C  0.59847020  0.72171968  0.95677587     0.07300
C4216       C  0.60646878  0.71104139  0.94904814    -0.26900
H4217       H  0.58037951  0.75353334  0.93084095     0.12000
H4218       H  0.58013384  0.75262898  0.90395603     0.13100
H4219       H  0.61937981  0.69087184  0.93217707     0.12200
H4220       H  0.61843672  0.68954186  0.90545084     0.11500
H4221       H  0.60964741  0.69900632  0.88216578     0.16900
H4222       H  0.58564752  0.73947457  0.88072425     0.12800
H4223       H  0.58581656  0.74156289  0.95471742     0.15600
H4224       H  0.61160033  0.70215199  0.95493946     0.15400
C4225       C  0.81566100  0.49010323  0.72821009    -0.17500
C4226       C  0.81560230  0.50536929  0.72814515    -0.19600
C4227       C  0.81778656  0.51304207  0.71505653     0.21000
C4228       C  0.81996129  0.50529214  0.70185369    -0.02600
C4229       C  0.81998340  0.48982099  0.70191306    -0.05600
C4230       C  0.81786204  0.48224804  0.71517850     0.21300
C4231       C  0.82230377  0.48195125  0.68878508     0.19400
C4232       C  0.82452734  0.48969836  0.67570236    -0.17100
C4233       C  0.82453039  0.50505726  0.67564779    -0.19300
C4234       C  0.82229974  0.51298818  0.68867447     0.20900
C4235       C  0.82262484  0.52843008  0.68885963    -0.32300
C4236       C  0.82071551  0.53618450  0.70210314     0.01600
C4237       C  0.81810001  0.52834015  0.71506322    -0.23700
C4238       C  0.81818177  0.46694690  0.71528562    -0.28300
C4239       C  0.82066418  0.45893796  0.70234364     0.07300
C4240       C  0.82258510  0.46652242  0.68906252    -0.26900
H4241       H  0.81405297  0.48443215  0.73848552     0.12000
H4242       H  0.81395612  0.51118581  0.73837345     0.13100
H4243       H  0.82635858  0.48387699  0.66551142     0.12200
H4244       H  0.82637059  0.51073512  0.66541724     0.11500
H4245       H  0.82471832  0.53436683  0.67882111     0.16900
H4246       H  0.81659242  0.53415876  0.72531981     0.12800
H4247       H  0.81673889  0.46126166  0.72558501     0.15600
H4248       H  0.82463017  0.46046043  0.67904912     0.15400
C4249       C  0.82309157  0.63129408  0.62039044    -0.17500
C4250       C  0.82314731  0.62015735  0.63093664    -0.19600
C4251       C  0.82227190  0.62355204  0.64593900     0.21000
C4252       C  0.82123874  0.63835149  0.65028908    -0.02600
C4253       C  0.82125044  0.64958752  0.63965552    -0.05600
C4254       C  0.82221350  0.64606982  0.62461896     0.21300
C4255       C  0.82047355  0.66435893  0.64411638     0.19400
C4256       C  0.81949707  0.66778637  0.65907039    -0.17100
C4257       C  0.81942440  0.65669886  0.66955741    -0.19300
C4258       C  0.82036769  0.64197466  0.66529378     0.20900
C4259       C  0.82066413  0.63086997  0.67583111    -0.32300
C4260       C  0.82192780  0.61608306  0.67170744     0.01600
C4261       C  0.82260008  0.61248665  0.65667837    -0.23700
C4262       C  0.82249792  0.65739638  0.61415127    -0.28300
C4263       C  0.82201527  0.67219410  0.61858227     0.07300
C4264       C  0.82088069  0.67549461  0.63360287    -0.26900
H4265       H  0.82385008  0.62834526  0.60891440     0.12000
H4266       H  0.82394828  0.60887751  0.62735059     0.13100
H4267       H  0.81887702  0.67907426  0.66267380     0.12200
H4268       H  0.81874788  0.65965857  0.68103769     0.11500
H4269       H  0.82013927  0.63380435  0.68733187     0.16900
H4270       H  0.82362024  0.60114069  0.65335777     0.12800
H4271       H  0.82341321  0.65471118  0.60261838     0.15600
H4272       H  0.82045194  0.68681068  0.63716830     0.15400
C4273       C  0.90675383  0.60609453  0.72927444    -0.17500
C4274       C  0.92205575  0.60523461  0.73074849    -0.19600
C4275       C  0.92961420  0.59249896  0.72659593     0.21000
C4276       C  0.92155719  0.58044255  0.72111976    -0.02600
C4277       C  0.90615063  0.58137717  0.71945799    -0.05600
C4278       C  0.89867951  0.59427881  0.72350994     0.21300
C4279       C  0.89827799  0.56946572  0.71347852     0.19400
C4280       C  0.90572532  0.55663733  0.70955870    -0.17100
C4281       C  0.92090190  0.55566987  0.71131173    -0.19300
C4282       C  0.92892714  0.56756033  0.71690367     0.20900
C4283       C  0.94425383  0.56696452  0.71772632    -0.32300
C4284       C  0.95252234  0.57916627  0.72237740     0.01600
C4285       C  0.94508131  0.59178320  0.72723874    -0.23700
C4286       C  0.88334104  0.59515017  0.72154590    -0.28300
C4287       C  0.87548527  0.58334580  0.71533029     0.07300
C4288       C  0.88311164  0.57057491  0.71137699    -0.26900
H4289       H  0.90125467  0.61609613  0.73246656     0.12000
H4290       H  0.92800279  0.61461630  0.73498128     0.13100
H4291       H  0.89982003  0.54737455  0.70500740     0.12200
H4292       H  0.92640785  0.54570096  0.70801965     0.11500
H4293       H  0.94981821  0.55717423  0.71398776     0.16900
H4294       H  0.95131890  0.60128566  0.73072915     0.12800
H4295       H  0.87758601  0.60505531  0.72459887     0.15600
H4296       H  0.87720458  0.56138375  0.70666607     0.15400
C4297       C  0.72800447  0.50571628  0.81360903    -0.17500
C4298       C  0.72772026  0.49042654  0.81292143    -0.19600
C4299       C  0.71491769  0.48266061  0.81652014     0.21000
C4300       C  0.70212929  0.49040001  0.82039272    -0.02600
C4301       C  0.70239673  0.50588801  0.82101800    -0.05600
C4302       C  0.71547763  0.51353337  0.81785580     0.21300
C4303       C  0.68971592  0.51368257  0.82518949     0.19400
C4304       C  0.67679771  0.50589260  0.82835770    -0.17100
C4305       C  0.67655858  0.49055024  0.82782466    -0.19300
C4306       C  0.68921564  0.48266698  0.82405229     0.20900
C4307       C  0.68933280  0.46723043  0.82431362    -0.32300
C4308       C  0.70223521  0.45943638  0.82100907     0.01600
C4309       C  0.71485470  0.46730067  0.81677098    -0.23700
C4310       C  0.71594053  0.52882087  0.81934346    -0.28300
C4311       C  0.70349371  0.53670500  0.82389015     0.07300
C4312       C  0.69030431  0.52906025  0.82648914    -0.26900
H4313       H  0.73811331  0.51142214  0.81104904     0.12000
H4314       H  0.73762018  0.48465724  0.80985521     0.13100
H4315       H  0.66692834  0.51166004  0.83151899     0.12200
H4316       H  0.66651386  0.48483750  0.83060033     0.11500
H4317       H  0.67954632  0.46132214  0.82757318     0.16900
H4318       H  0.72484530  0.46146985  0.81412641     0.12800
H4319       H  0.72612084  0.53457825  0.81717704     0.15600
H4320       H  0.68065052  0.53501171  0.82997804     0.15400
C4321       C  0.67342941  0.65924832  0.82882746    -0.17500
C4322       C  0.66301645  0.67043926  0.82823787    -0.19600
C4323       C  0.64802910  0.66712556  0.82697636     0.21000
C4324       C  0.64351685  0.65237472  0.82599969    -0.02600
C4325       C  0.65406720  0.64104989  0.82647810    -0.05600
C4326       C  0.66907078  0.64452120  0.82806159     0.21300
C4327       C  0.64958591  0.62627718  0.82557283     0.19400
C4328       C  0.63460607  0.62298777  0.82409323    -0.17100
C4329       C  0.62415367  0.63419262  0.82374430    -0.19300
C4330       C  0.62846485  0.64893192  0.82480087     0.20900
C4331       C  0.61800559  0.66025888  0.82498206    -0.32300
C4332       C  0.62240346  0.67501640  0.82630179     0.01600
C4333       C  0.63748849  0.67830473  0.82701526    -0.23700
C4334       C  0.67944731  0.63322989  0.82895554    -0.28300
C4335       C  0.67510904  0.61844280  0.82809840     0.07300
C4336       C  0.66013150  0.61507899  0.82630081    -0.26900
H4337       H  0.68490599  0.66212060  0.82997619     0.12000
H4338       H  0.66668169  0.68170547  0.82896793     0.13100
H4339       H  0.63094609  0.61172110  0.82335157     0.12200
H4340       H  0.61266415  0.63131334  0.82276943     0.11500
H4341       H  0.60644113  0.65756608  0.82437455     0.16900
H4342       H  0.64104605  0.68959117  0.82800636     0.12800
H4343       H  0.69093985  0.63597556  0.83029731     0.15600
H4344       H  0.65665428  0.60374390  0.82567349     0.15400
C4345       C  0.79247679  0.59562378  0.78224228    -0.17500
C4346       C  0.78187729  0.59584646  0.79337499    -0.19600
C4347       C  0.76699846  0.59356332  0.79010772     0.21000
C4348       C  0.76277361  0.59117443  0.77542363    -0.02600
C4349       C  0.77347897  0.59097278  0.76417407    -0.05600
C4350       C  0.78841877  0.59313858  0.76760031     0.21300
C4351       C  0.76923401  0.58842612  0.74952859     0.19400
C4352       C  0.75436173  0.58618172  0.74624324    -0.17100
C4353       C  0.74378963  0.58635177  0.75735950    -0.19300
C4354       C  0.74787585  0.58879128  0.77198212     0.20900
C4355       C  0.73734546  0.58865349  0.78322079    -0.32300
C4356       C  0.74145091  0.59077904  0.79794296     0.01600
C4357       C  0.75631934  0.59337930  0.80126468    -0.23700
C4358       C  0.79902389  0.59260452  0.75636276    -0.28300
C4359       C  0.79489189  0.58993184  0.74170941     0.07300
C4360       C  0.77992189  0.58797329  0.73843547    -0.26900
H4361       H  0.80388118  0.59731560  0.78510640     0.12000
H4362       H  0.78534398  0.59769742  0.80457502     0.13100
H4363       H  0.75090482  0.58419552  0.73506254     0.12200
H4364       H  0.73240421  0.58448519  0.75451922     0.11500
H4365       H  0.72595645  0.58658771  0.78050816     0.16900
H4366       H  0.75962594  0.59499083  0.81255349     0.12800
H4367       H  0.81050376  0.59408395  0.75905493     0.15600
H4368       H  0.77657557  0.58586064  0.72723832     0.15400
C4369       C  0.70066853  0.55991135  0.92559087    -0.17500
C4370       C  0.70057566  0.56031449  0.91033785    -0.19600
C4371       C  0.70827807  0.57128510  0.90287143     0.21000
C4372       C  0.71629535  0.58189587  0.91080259    -0.02600
C4373       C  0.71633828  0.58152487  0.92626959    -0.05600
C4374       C  0.70840673  0.57051448  0.93361374     0.21300
C4375       C  0.72397522  0.59232769  0.93437015     0.19400
C4376       C  0.73176299  0.60323204  0.92680136    -0.17100
C4377       C  0.73178967  0.60355329  0.91142418    -0.19300
C4378       C  0.72400055  0.59299607  0.90329757     0.20900
C4379       C  0.72354471  0.59342396  0.88785300    -0.32300
C4380       C  0.71534406  0.58294403  0.87994301     0.01600
C4381       C  0.70787277  0.57189070  0.88759968    -0.23700
C4382       C  0.70785532  0.57054026  0.94887272    -0.28300
C4383       C  0.71477956  0.58160324  0.95710810     0.07300
C4384       C  0.72320443  0.59228439  0.94982691    -0.26900
H4385       H  0.69449351  0.55142261  0.93112554     0.12000
H4386       H  0.69436708  0.55210708  0.90437605     0.13100
H4387       H  0.73769119  0.61162964  0.93277568     0.12200
H4388       H  0.73777474  0.61216911  0.90588831     0.11500
H4389       H  0.72928109  0.60203118  0.88204164     0.16900
H4390       H  0.70155498  0.56374646  0.88165074     0.12800
H4391       H  0.70145883  0.56216716  0.95435579     0.15600
H4392       H  0.72853165  0.60087721  0.95608928     0.15400
loop_ 
_geom_bond_atom_site_label_1 
_geom_bond_atom_site_label_2 
_geom_bond_distance 
_geom_bond_site_symmetry_2 
_ccdc_geom_bond_type 
O1            C4   1.269       .  A
O1           Cd6   2.498       .  S
C2           O11   1.263       .  A
C2            O7   1.267       .  A
C2         C4380   1.484       .  S
O3            C9   1.268       .  A
O3           Cd6   2.512       .  S
C4           O12   1.267       .  A
C4         C4356   1.489       .  S
C5           O10   1.270       .  A
C5            O8   1.265       .  A
C5         C4311   1.490       .  S
Cd6          O13   2.477       .  S
Cd6          O12   2.465       .  S
Cd6          O11   2.431       .  S
Cd6           O7   2.529       .  S
Cd6          O10   2.521       .  S
Cd6           O8   2.458       .  S
C9           O13   1.264       .  A
C9         C4335   1.490       .  S
O14          C17   1.268       .  A
O14         Cd19   2.510       .  S
C15          O24   1.262       .  A
C15          O20   1.266       .  A
C15        C4287   1.489       .  S
O16          C22   1.269       .  A
O16         Cd19   2.525       .  S
C17          O25   1.268       .  A
C17        C4359   1.493       .  S
C18          O23   1.266       .  A
C18          O21   1.264       .  A
C18        C4260   1.490       .  S
Cd19         O26   2.434       .  S
Cd19         O25   2.485       .  S
Cd19         O24   2.456       .  S
Cd19         O20   2.543       .  S
Cd19         O23   2.527       .  S
Cd19         O21   2.469       .  S
C22          O26   1.264       .  A
C22        C4236   1.486       .  S
O27          C30   1.266       .  A
O27         Cd32   2.515       .  S
C28          O37   1.266       .  A
C28          O33   1.267       .  A
C28        C4212   1.488       .  S
O29          C35   1.266       .  A
O29         Cd32   2.529       .  S
C30          O38   1.264       .  A
C30        C4191   1.489       .  S
C31          O36   1.269       .  A
C31          O34   1.268       .  A
C31        C4332   1.493       .  S
Cd32         O39   2.452       .  S
Cd32         O38   2.478       .  S
Cd32         O37   2.462       .  S
Cd32         O33   2.519       .  S
Cd32         O36   2.514       .  S
Cd32         O34   2.483       .  S
C35          O39   1.262       .  A
C35        C4164   1.487       .  S
O40          C43   1.269       .  A
O40         Cd45   2.497       .  S
C41          O50   1.262       .  A
C41          O46   1.267       .  A
C41        C4140   1.484       .  S
O42          C48   1.270       .  A
O42         Cd45   2.528       .  S
C43          O51   1.266       .  A
C43        C4188   1.490       .  S
C44          O49   1.264       .  A
C44          O47   1.265       .  A
C44        C4092   1.488       .  S
Cd45         O52   2.442       .  S
Cd45         O51   2.485       .  S
Cd45         O50   2.451       .  S
Cd45         O46   2.518       .  S
Cd45         O49   2.479       .  S
Cd45         O47   2.516       .  S
C48          O52   1.264       .  A
C48        C4116   1.490       .  S
O53          C56   1.268       .  A
O53         Cd58   2.549       .  S
C54          O63   1.266       .  A
C54          O59   1.268       .  A
C54        C4044   1.494       .  S
O55          C61   1.270       .  A
O55         Cd58   2.511       .  S
C56          O64   1.262       .  A
C56        C4068   1.491       .  S
C57          O62   1.267       .  A
C57          O60   1.265       .  A
C57        C4263   1.491       .  S
Cd58         O65   2.454       .  S
Cd58         O64   2.456       .  S
Cd58         O63   2.487       .  S
Cd58         O59   2.520       .  S
Cd58         O62   2.527       .  S
Cd58         O60   2.470       .  S
C61          O65   1.266       .  A
C61        C4020   1.488       .  S
O66          C69   1.268       .  A
O66         Cd71   2.498       .  S
C67          O76   1.263       .  A
C67          O72   1.267       .  A
C67        C3996   1.485       .  S
O68          C74   1.271       .  A
O68         Cd71   2.537       .  S
C69          O77   1.268       .  A
C69        C4047   1.493       .  S
C70          O75   1.268       .  A
C70          O73   1.265       .  A
C70        C4119   1.497       .  S
Cd71         O78   2.451       .  S
Cd71         O77   2.499       .  S
Cd71         O76   2.458       .  S
Cd71         O72   2.527       .  S
Cd71         O75   2.541       .  S
Cd71         O73   2.492       .  S
C74          O78   1.264       .  A
C74        C3972   1.491       .  S
O79          C82   1.269       .  A
O79         Cd84   2.455       .  S
C80          O89   1.267       .  A
C80          O85   1.269       .  A
C80        C3900   1.476       .  S
O81          C87   1.272       .  A
O81         Cd84   2.546   1_545  S
C82          O90   1.267       .  A
C82        C3948   1.475       .  S
C83          O88   1.272       .  A
C83          O86   1.262       .  A
C83        C3999   1.487       .  S
Cd84         O91   2.421   1_565  S
Cd84         O90   2.432       .  S
Cd84         O89   2.416   1_565  S
Cd84         O85   2.472   1_565  S
Cd84         O88   2.542       .  S
Cd84         O86   2.425       .  S
C87          O91   1.262       .  A
C87        C3924   1.489       .  S
O92          C95   1.270       .  A
O92         Cd97   2.466       .  S
C93         O102   1.266       .  A
C93          O98   1.271       .  A
C93        C3951   1.470       .  S
O94         C100   1.271       .  A
O94         Cd97   2.529   1_545  S
C95         O103   1.266       .  A
C95        C3852   1.474       .  S
C96         O101   1.272       .  A
C96          O99   1.262       .  A
C96        C4143   1.473       .  S
Cd97        O104   2.411   1_565  S
Cd97        O103   2.409       .  S
Cd97        O102   2.395       .  S
Cd97         O98   2.452       .  S
Cd97        O101   2.507       .  S
Cd97         O99   2.403       .  S
C100        O104   1.263       .  A
C100       C3876   1.484       .  S
O105        C108   1.269       .  A
O105       Cd110   2.499       .  S
C106        O115   1.261       .  A
C106        O111   1.266       .  A
C106       C3831   1.486       .  S
O107        C113   1.266       .  A
O107       Cd110   2.522       .  S
C108        O116   1.268       .  A
C108       C3804   1.494       .  S
C109        O114   1.269       .  A
C109        O112   1.264       .  A
C109       C4239   1.486       .  S
Cd110       O117   2.492       .  S
Cd110       O116   2.503       .  S
Cd110       O115   2.481       .  S
Cd110       O111   2.519       .  S
Cd110       O114   2.519       .  S
Cd110       O112   2.437       .  S
C113        O117   1.265       .  A
C113       C3783   1.491       .  S
O118        C121   1.268       .  A
O118       Cd123   2.492       .  S
C119        O128   1.263       .  A
C119        O124   1.266       .  A
C119       C3759   1.487       .  S
O120        C126   1.271       .  A
O120       Cd123   2.530       .  S
C121        O129   1.267       .  A
C121       C3807   1.491       .  S
C122        O127   1.269       .  A
C122        O125   1.263       .  A
C122       C3732   1.494       .  S
Cd123       O130   2.458       .  S
Cd123       O129   2.487       .  S
Cd123       O128   2.484       .  S
Cd123       O124   2.508       .  S
Cd123       O127   2.529       .  S
Cd123       O125   2.491       .  S
C126        O130   1.265       .  A
C126       C4308   1.492       .  S
O131        C134   1.269       .  A
O131       Cd136   2.534       .  S
C132        O141   1.266       .  A
C132        O137   1.269       .  A
C132       C3687   1.488       .  S
O133        C139   1.269       .  A
O133       Cd136   2.508       .  S
C134        O142   1.263       .  A
C134       C3708   1.484       .  S
C135        O140   1.268       .  A
C135        O138   1.266       .  A
C135       C3735   1.492       .  S
Cd136       O143   2.459       .  S
Cd136       O142   2.426       .  S
Cd136       O141   2.473       .  S
Cd136       O137   2.492       .  S
Cd136       O140   2.500       .  S
Cd136       O138   2.491       .  S
C139        O143   1.265       .  A
C139       C3663   1.483       .  S
O144        C147   1.266       .  A
O144       Cd149   2.522       .  S
C145        O154   1.266       .  A
C145        O150   1.266       .  A
C145       C3636   1.484       .  S
O146        C152   1.266       .  A
O146       Cd149   2.511       .  S
C147        O155   1.264       .  A
C147       C3615   1.490       .  S
C148        O153   1.267       .  A
C148        O151   1.265       .  A
C148       C3780   1.490       .  S
Cd149       O156   2.464       .  S
Cd149       O155   2.481       .  S
Cd149       O154   2.474       .  S
Cd149       O150   2.483       .  S
Cd149       O153   2.522       .  S
Cd149       O151   2.463       .  S
C152        O156   1.263       .  A
C152       C3588   1.485       .  S
O157        C160   1.268       .  A
O157       Cd162   2.471       .  S
C158        O167   1.264       .  A
C158        O163   1.267       .  A
C158       C3879   1.485       .  S
O159        C165   1.272       .  A
O159       Cd162   2.532       .  S
C160        O168   1.267       .  A
C160       C3684   1.487       .  S
C161        O166   1.270       .  A
C161        O164   1.264       .  A
C161       C3564   1.492       .  S
Cd162       O169   2.453       .  S
Cd162       O168   2.490       .  S
Cd162       O167   2.446       .  S
Cd162       O163   2.529       .  S
Cd162       O166   2.534       .  S
Cd162       O164   2.466       .  S
C165        O169   1.265       .  A
C165       C3540   1.492       .  S
O170        C173   1.265       .  A
O170       Cd175   2.496       .  S
C171        O180   1.265       .  A
C171        O176   1.266       .  A
C171       C3927   1.484       .  S
O172        C178   1.268       .  A
O172       Cd175   2.510       .  S
C173        O181   1.265       .  A
C173       C3612   1.486       .  S
C174        O179   1.266       .  A
C174        O177   1.262       .  A
C174       C3516   1.486       .  S
Cd175       O182   2.466       .  S
Cd175       O181   2.481       .  S
Cd175       O180   2.460       .  S
Cd175       O176   2.511       .  S
Cd175       O179   2.523       .  S
Cd175       O177   2.461       .  S
C178        O182   1.267       .  A
C178       C3567   1.490       .  S
O183        C186   1.270       .  A
O183       Cd188   2.434       .  S
C184        O193   1.265       .  A
C184        O189   1.268       .  A
C184       C3444   1.471       .  S
O185        C191   1.272       .  A
O185       Cd188   2.530   1_455  S
C186        O194   1.268       .  A
C186       C3492   1.474       .  S
C187        O192   1.272       .  A
C187        O190   1.262       .  A
C187       C3639   1.471       .  S
Cd188       O195   2.375   1_655  S
Cd188       O194   2.435       .  S
Cd188       O193   2.405       .  S
Cd188       O189   2.478       .  S
Cd188       O192   2.515       .  S
Cd188       O190   2.383       .  S
C191        O195   1.262       .  A
C191       C3468   1.480       .  S
O196        C199   1.270       .  A
O196       Cd201   2.430       .  S
C197        O206   1.269       .  A
C197        O202   1.271   1_455  A
C197       C3396   1.472       .  S
O198        C204   1.274       .  A
O198       Cd201   2.529       .  S
C199        O207   1.268       .  A
C199       C3495   1.472       .  S
C200        O205   1.276       .  A
C200        O203   1.263       .  A
C200       C3420   1.483       .  S
Cd201       O208   2.421       .  S
Cd201       O207   2.423       .  S
Cd201       O206   2.395   1_655  S
Cd201       O202   2.451       .  S
Cd201       O205   2.527   1_655  S
Cd201       O203   2.392   1_655  S
C204        O208   1.263       .  A
C204       C3828   1.482       .  S
O209        C212   1.269       .  A
O209       Cd214   2.508       .  S
C210        O219   1.263       .  A
C210        O215   1.269       .  A
C210       C3471   1.481       .  S
O211        C217   1.269       .  A
O211       Cd214   2.510       .  S
C212        O220   1.267       .  A
C212       C3348   1.491       .  S
C213        O218   1.271       .  A
C213        O216   1.265       .  A
C213       C3324   1.487       .  S
Cd214       O221   2.492       .  S
Cd214       O220   2.476       .  S
Cd214       O219   2.426       .  S
Cd214       O215   2.508       .  S
Cd214       O218   2.528       .  S
Cd214       O216   2.429       .  S
C217        O221   1.265       .  A
C217       C3372   1.492       .  S
O222        C225   1.266       .  A
O222       Cd227   2.523       .  S
C223        O232   1.265       .  A
C223        O228   1.267       .  A
C223       C3300   1.484       .  S
O224        C230   1.267       .  A
O224       Cd227   2.517       .  S
C225        O233   1.264       .  A
C225       C3351   1.490       .  S
C226        O231   1.269       .  A
C226        O229   1.266       .  A
C226       C3276   1.494       .  S
Cd227       O234   2.494       .  S
Cd227       O233   2.475       .  S
Cd227       O232   2.456       .  S
Cd227       O228   2.499       .  S
Cd227       O231   2.538       .  S
Cd227       O229   2.465       .  S
C230        O234   1.263       .  A
C230       C3252   1.491       .  S
O235        C238   1.269       .  A
O235       Cd240   2.501       .  S
C236        O245   1.263       .  A
C236        O241   1.269       .  A
C236       C3231   1.486       .  S
O237        C243   1.267       .  A
O237       Cd240   2.517       .  S
C238        O246   1.266       .  A
C238       C3207   1.487       .  S
C239        O244   1.269       .  A
C239        O242   1.265       .  A
C239       C3543   1.488       .  S
Cd240       O247   2.486       .  S
Cd240       O246   2.461       .  S
Cd240       O245   2.408       .  S
Cd240       O241   2.548       .  S
Cd240       O244   2.507       .  S
Cd240       O242   2.465       .  S
C243        O247   1.267       .  A
C243       C3279   1.493       .  S
O248        C251   1.268       .  A
O248       Cd253   2.482       .  S
C249        O258   1.264       .  A
C249        O254   1.266       .  A
C249       C3180   1.483       .  S
O250        C256   1.270       .  A
O250       Cd253   2.506       .  S
C251        O259   1.267       .  A
C251       C3204   1.485       .  S
C252        O257   1.268       .  A
C252        O255   1.264       .  A
C252       C3156   1.490       .  S
Cd253       O260   2.466       .  S
Cd253       O259   2.469       .  S
Cd253       O258   2.460       .  S
Cd253       O254   2.513       .  S
Cd253       O257   2.523       .  S
Cd253       O255   2.468       .  S
C256        O260   1.265       .  A
C256       C3660   1.488       .  S
O261        C264   1.268       .  A
O261       Cd266   2.501       .  S
C262        O271   1.265       .  A
C262        O267   1.270       .  A
C262       C3423   1.479       .  S
O263        C269   1.269       .  A
O263       Cd266   2.537       .  S
C264        O272   1.265       .  A
C264       C3132   1.488       .  S
C265        O270   1.270       .  A
C265        O268   1.266       .  A
C265       C3375   1.487       .  S
Cd266       O273   2.422       .  S
Cd266       O272   2.469       .  S
Cd266       O271   2.431       .  S
Cd266       O267   2.500       .  S
Cd266       O270   2.480       .  S
Cd266       O268   2.471       .  S
C269        O273   1.264       .  A
C269       C3108   1.487       .  S
O274        C277   1.268       .  A
O274       Cd279   2.500       .  S
C275        O284   1.267       .  A
C275        O280   1.269       .  A
C275       C3135   1.489       .  S
O276        C282   1.271       .  A
O276       Cd279   2.498       .  S
C277        O285   1.264       .  A
C277       C3084   1.483       .  S
C278        O283   1.269       .  A
C278        O281   1.265       .  A
C278       C3159   1.492       .  S
Cd279       O286   2.458       .  S
Cd279       O285   2.457       .  S
Cd279       O284   2.478       .  S
Cd279       O280   2.494       .  S
Cd279       O283   2.524       .  S
Cd279       O281   2.478       .  S
C282        O286   1.266       .  A
C282       C3060   1.486       .  S
O287        C290   1.269       .  A
O287       Cd292   2.451       .  S
C288        O297   1.268       .  A
C288        O293   1.270   1_545  A
C288       C2988   1.476       .  S
O289        C295   1.271       .  A
O289       Cd292   2.536       .  S
C290        O298   1.266       .  A
C290       C3036   1.473       .  S
C291        O296   1.273       .  A
C291        O294   1.264       .  A
C291       C3303   1.482       .  S
Cd292       O299   2.405       .  S
Cd292       O298   2.420       .  S
Cd292       O297   2.428   1_565  S
Cd292       O293   2.456       .  S
Cd292       O296   2.521   1_565  S
Cd292       O294   2.424   1_565  S
C295        O299   1.262       .  A
C295       C3012   1.483       .  S
O300        C303   1.269       .  A
O300       Cd305   2.476       .  S
C301        O310   1.268       .  A
C301        O306   1.272       .  A
C301       C3039   1.470       .  S
O302        C308   1.271       .  A
O302       Cd305   2.515       .  S
C303        O311   1.264       .  A
C303       C3855   1.473       .  S
C304        O309   1.272       .  A
C304        O307   1.263       .  A
C304       C3228   1.487       .  S
Cd305       O312   2.402       .  S
Cd305       O311   2.403       .  S
Cd305       O310   2.389       .  S
Cd305       O306   2.455       .  S
Cd305       O309   2.540   1_565  S
Cd305       O307   2.403   1_565  S
C308        O312   1.260       .  A
C308       C2964   1.473       .  S
O313        C316   1.271       .  A
O313       Cd318   2.456       .  S
C314        O323   1.266       .  A
C314        O319   1.271       .  A
C314       C2892   1.480       .  S
O315        C321   1.272       .  A
O315       Cd318   2.540       .  S
C316        O324   1.267       .  A
C316       C2940   1.476       .  S
C317        O322   1.271       .  A
C317        O320   1.263       .  A
C317       C2916   1.485       .  S
Cd318       O325   2.430       .  S
Cd318       O324   2.421       .  S
Cd318       O323   2.402   1_655  S
Cd318       O319   2.499   1_655  S
Cd318       O322   2.538   1_655  S
Cd318       O320   2.433   1_655  S
C321        O325   1.264       .  A
C321       C4071   1.489       .  S
O326        C329   1.270       .  A
O326       Cd331   2.459       .  S
C327        O336   1.267       .  A
C327        O332   1.269       .  A
C327       C3399   1.476       .  S
O328        C334   1.272       .  A
O328       Cd331   2.554   1_455  S
C329        O337   1.267       .  A
C329       C2943   1.474       .  S
C330        O335   1.272       .  A
C330        O333   1.262       .  A
C330       C4284   1.490       .  S
Cd331       O338   2.423   1_655  S
Cd331       O337   2.410       .  S
Cd331       O336   2.416   1_655  S
Cd331       O332   2.474   1_655  S
Cd331       O335   2.549       .  S
Cd331       O333   2.427       .  S
C334        O338   1.262       .  A
C334       C2868   1.490       .  S
O339        C342   1.268       .  A
O339       Cd344   2.488       .  S
C340        O349   1.265       .  A
C340        O345   1.267       .  A
C340       C2820   1.487       .  S
O341        C347   1.268       .  A
O341       Cd344   2.522       .  S
C342        O350   1.265       .  A
C342       C2844   1.479       .  S
C343        O348   1.269       .  A
C343        O346   1.266       .  A
C343       C2799   1.491       .  S
Cd344       O351   2.464       .  S
Cd344       O350   2.452       .  S
Cd344       O349   2.474       .  S
Cd344       O345   2.500       .  S
Cd344       O348   2.510       .  S
Cd344       O346   2.470       .  S
C347        O351   1.263       .  A
C347       C4167   1.489       .  S
O352        C355   1.270       .  A
O352       Cd357   2.510       .  S
C353        O362   1.263       .  A
C353        O358   1.265       .  A
C353       C2967   1.484       .  S
O354        C360   1.263       .  A
O354       Cd357   2.467       .  S
C355        O363   1.265       .  A
C355       C2823   1.489       .  S
C356        O361   1.269       .  A
C356        O359   1.265       .  A
C356       C2775   1.495       .  S
Cd357       O364   2.509       .  S
Cd357       O363   2.461       .  S
Cd357       O362   2.465       .  S
Cd357       O358   2.506       .  S
Cd357       O361   2.533       .  S
Cd357       O359   2.470       .  S
C360        O364   1.266       .  A
C360       C4095   1.486       .  S
O365        C368   1.265       .  A
O365       Cd370   2.544       .  S
C366        O375   1.267       .  A
C366        O371   1.268       .  A
C366       C2748   1.490       .  S
O367        C373   1.270       .  A
O367       Cd370   2.528       .  S
C368        O376   1.261       .  A
C368       C3015   1.487       .  S
C369        O374   1.267       .  A
C369        O372   1.264       .  A
C369       C2772   1.496       .  S
Cd370       O377   2.470       .  S
Cd370       O376   2.450       .  S
Cd370       O375   2.478       .  S
Cd370       O371   2.502       .  S
Cd370       O374   2.543       .  S
Cd370       O372   2.496       .  S
C373        O377   1.265       .  A
C373       C2724   1.493       .  S
O378        C381   1.269       .  A
O378       Cd383   2.504       .  S
C379        O388   1.264       .  A
C379        O384   1.268       .  A
C379       C2700   1.489       .  S
O380        C386   1.270       .  A
O380       Cd383   2.525       .  S
C381        O389   1.266       .  A
C381       C2676   1.488       .  S
C382        O387   1.268       .  A
C382        O385   1.266       .  A
C382       C2796   1.493       .  S
Cd383       O390   2.452       .  S
Cd383       O389   2.465       .  S
Cd383       O388   2.434       .  S
Cd383       O384   2.542       .  S
Cd383       O387   2.526       .  S
Cd383       O385   2.486       .  S
C386        O390   1.264       .  A
C386       C3063   1.488       .  S
O391        C394   1.266       .  A
O391       Cd396   2.522       .  S
C392        O401   1.265       .  A
C392        O397   1.268       .  A
C392       C2919   1.488       .  S
O393        C399   1.266       .  A
O393       Cd396   2.529       .  S
C394        O402   1.264       .  A
C394       C2751   1.489       .  S
C395        O400   1.268       .  A
C395        O398   1.265       .  A
C395       C2652   1.491       .  S
Cd396       O403   2.486       .  S
Cd396       O402   2.475       .  S
Cd396       O401   2.460       .  S
Cd396       O397   2.510       .  S
Cd396       O400   2.503       .  S
Cd396       O398   2.493       .  S
C399        O403   1.263       .  A
C399       C2628   1.491       .  S
O404        C407   1.266       .  A
O404       Cd409   2.491       .  S
C405        O414   1.263       .  A
C405        O410   1.266       .  A
C405       C2871   1.483       .  S
O406        C412   1.270       .  A
O406       Cd409   2.494       .  S
C407        O415   1.266       .  A
C407       C2679   1.488       .  S
C408        O413   1.267       .  A
C408        O411   1.263       .  A
C408       C3111   1.488       .  S
Cd409       O416   2.478       .  S
Cd409       O415   2.491       .  S
Cd409       O414   2.457       .  S
Cd409       O410   2.515       .  S
Cd409       O413   2.538       .  S
Cd409       O411   2.448       .  S
C412        O416   1.268       .  A
C412       C2655   1.490       .  S
O417        C420   1.270       .  A
O417       Cd422   2.478   1_554  S
C418        O427   1.267       .  A
C418        O423   1.271       .  A
C418       C2607   1.479       .  S
O419        C425   1.272       .  A
O419       Cd422   2.526   1_554  S
C420        O428   1.266       .  A
C420       C2556   1.479       .  S
C421        O426   1.272       .  A
C421        O424   1.264       .  A
C421       C3711   1.485       .  S
Cd422       O429   2.402   1_556  S
Cd422       O428   2.429   1_556  S
Cd422       O427   2.428       .  S
Cd422       O423   2.469       .  S
Cd422       O426   2.527       .  S
Cd422       O424   2.404       .  S
C425        O429   1.263       .  A
C425       C2583   1.482       .  S
O430        C433   1.269       .  A
O430       Cd435   2.463       .  S
C431        O440   1.267       .  A
C431        O436   1.270       .  A
C431       C2508   1.477       .  S
O432        C438   1.272       .  A
O432       Cd435   2.551   1_554  S
C433        O441   1.268       .  A
C433       C2604   1.479       .  S
C434        O439   1.272       .  A
C434        O437   1.263       .  A
C434       C3756   1.490       .  S
Cd435       O442   2.417   1_556  S
Cd435       O441   2.441       .  S
Cd435       O440   2.425   1_556  S
Cd435       O436   2.470   1_556  S
Cd435       O439   2.549       .  S
Cd435       O437   2.432       .  S
C438        O442   1.262       .  A
C438       C2532   1.487       .  S
O443        C446   1.267       .  A
O443       Cd448   2.519       .  S
C444        O453   1.265       .  A
C444        O449   1.268       .  A
C444       C2580   1.485       .  S
O445        C451   1.267       .  A
O445       Cd448   2.528       .  S
C446        O454   1.264       .  A
C446       C2460   1.487       .  S
C447        O452   1.269       .  A
C447        O450   1.266       .  A
C447       C2484   1.491       .  S
Cd448       O455   2.455       .  S
Cd448       O454   2.458       .  S
Cd448       O453   2.444       .  S
Cd448       O449   2.517       .  S
Cd448       O452   2.504       .  S
Cd448       O450   2.480       .  S
C451        O455   1.263       .  A
C451       C2436   1.488       .  S
O456        C459   1.267       .  A
O456       Cd461   2.498       .  S
C457        O466   1.264       .  A
C457        O462   1.268       .  A
C457       C2412   1.477       .  S
O458        C464   1.270       .  A
O458       Cd461   2.497       .  S
C459        O467   1.265       .  A
C459       C2463   1.483       .  S
C460        O465   1.269       .  A
C460        O463   1.263       .  A
C460       C2364   1.487       .  S
Cd461       O468   2.473       .  S
Cd461       O467   2.441       .  S
Cd461       O466   2.425       .  S
Cd461       O462   2.497       .  S
Cd461       O465   2.527       .  S
Cd461       O463   2.448       .  S
C464        O468   1.267       .  A
C464       C2388   1.489       .  S
O469        C472   1.267       .  A
O469       Cd474   2.518       .  S
C470        O479   1.264       .  A
C470        O475   1.267       .  A
C470       C2340   1.491       .  S
O471        C477   1.268       .  A
O471       Cd474   2.548       .  S
C472        O480   1.265       .  A
C472       C2535   1.489       .  S
C473        O478   1.269       .  A
C473        O476   1.267       .  A
C473       C2487   1.494       .  S
Cd474       O481   2.461       .  S
Cd474       O480   2.477       .  S
Cd474       O479   2.476       .  S
Cd474       O475   2.526       .  S
Cd474       O478   2.507       .  S
Cd474       O476   2.495       .  S
C477        O481   1.263       .  A
C477       C2319   1.493       .  S
O482        C485   1.266       .  A
O482       Cd487   2.507       .  S
C483        O492   1.265       .  A
C483        O488   1.266       .  A
C483       C2292   1.486       .  S
O484        C490   1.268       .  A
O484       Cd487   2.530       .  S
C485        O493   1.265       .  A
C485       C2343   1.489       .  S
C486        O491   1.269       .  A
C486        O489   1.267       .  A
C486       C2268   1.489       .  S
Cd487       O494   2.441       .  S
Cd487       O493   2.480       .  S
Cd487       O492   2.481       .  S
Cd487       O488   2.502       .  S
Cd487       O491   2.505       .  S
Cd487       O489   2.468       .  S
C490        O494   1.262       .  A
C490       C2244   1.487       .  S
O495        C498   1.268       .  A
O495       Cd500   2.495       .  S
C496        O505   1.265       .  A
C496        O501   1.268       .  A
C496       C2220   1.483       .  S
O497        C503   1.268       .  A
O497       Cd500   2.518       .  S
C498        O506   1.265       .  A
C498       C2196   1.488       .  S
C499        O504   1.269       .  A
C499        O502   1.267       .  A
C499       C2391   1.492       .  S
Cd500       O507   2.447       .  S
Cd500       O506   2.478       .  S
Cd500       O505   2.446       .  S
Cd500       O501   2.518       .  S
Cd500       O504   2.498       .  S
Cd500       O502   2.493       .  S
C503        O507   1.263       .  A
C503       C3519   1.486       .  S
O508        C511   1.266       .  A
O508       Cd513   2.475       .  S
C509        O518   1.263       .  A
C509        O514   1.266       .  A
C509       C2199   1.487       .  S
O510        C516   1.265       .  A
O510       Cd513   2.501       .  S
C511        O519   1.267       .  A
C511       C2172   1.486       .  S
C512        O517   1.267       .  A
C512        O515   1.265       .  A
C512       C2271   1.486       .  S
Cd513       O520   2.482       .  S
Cd513       O519   2.493       .  S
Cd513       O518   2.467       .  S
Cd513       O514   2.512       .  S
Cd513       O517   2.494       .  S
Cd513       O515   2.478       .  S
C516        O520   1.263       .  A
C516       C3591   1.486       .  S
O521        C524   1.269       .  A
O521       Cd526   2.461   1_556  S
C522        O531   1.268       .  A
C522        O527   1.270       .  A
C522       C2151   1.474       .  S
O523        C529   1.273       .  A
O523       Cd526   2.564   1_556  S
C524        O532   1.267       .  A
C524       C2100   1.473       .  S
C525        O530   1.273       .  A
C525        O528   1.262       .  A
C525       C2124   1.488       .  S
Cd526       O533   2.405   1_554  S
Cd526       O532   2.413   1_554  S
Cd526       O531   2.411       .  S
Cd526       O527   2.455       .  S
Cd526       O530   2.554       .  S
Cd526       O528   2.404       .  S
C529        O533   1.262       .  A
C529       C4215   1.490       .  S
O534        C537   1.271       .  A
O534       Cd539   2.447       .  S
C535        O544   1.268   1_556  A
C535        O540   1.271       .  A
C535       C2148   1.475       .  S
O536        C542   1.264       .  A
O536       Cd539   2.368       .  S
C537        O545   1.268       .  A
C537       C2511   1.475       .  S
C538        O543   1.275       .  A
C538        O541   1.264       .  A
C538       C4383   1.483       .  S
Cd539       O546   2.518       .  S
Cd539       O545   2.420       .  S
Cd539       O544   2.404       .  S
Cd539       O540   2.458   1_554  S
Cd539       O543   2.538   1_554  S
Cd539       O541   2.369   1_554  S
C542        O546   1.276       .  A
C542       C2079   1.479       .  S
O547        C550   1.270       .  A
O547       Cd552   2.460   1_565  S
C548        O557   1.268       .  A
C548        O553   1.271       .  A
C548       C2004   1.476       .  S
O549        C555   1.272       .  A
O549       Cd552   2.511       .  S
C550        O558   1.265       .  A
C550       C2052   1.474       .  S
C551        O556   1.270       .  A
C551        O554   1.263       .  A
C551       C2028   1.480       .  S
Cd552       O559   2.405       .  S
Cd552       O558   2.419   1_545  S
Cd552       O557   2.416       .  S
Cd552       O553   2.464       .  S
Cd552       O556   2.499   1_545  S
Cd552       O554   2.417   1_545  S
C555        O559   1.264       .  A
C555       C2415   1.477       .  S
O560        C563   1.269       .  A
O560       Cd565   2.457       .  S
C561        O570   1.266       .  A
C561        O566   1.269       .  A
C561       C3903   1.475       .  S
O562        C568   1.273       .  A
O562       Cd565   2.544       .  S
C563        O571   1.268       .  A
C563       C2055   1.478       .  S
C564        O569   1.271       .  A
C564        O567   1.263       .  A
C564       C2223   1.488       .  S
Cd565       O572   2.425       .  S
Cd565       O571   2.444       .  S
Cd565       O570   2.410   1_565  S
Cd565       O566   2.472   1_565  S
Cd565       O569   2.539   1_565  S
Cd565       O567   2.420   1_565  S
C568        O572   1.263       .  A
C568       C1983   1.489       .  S
O573        C576   1.267       .  A
O573       Cd578   2.542       .  S
C574        O583   1.266       .  A
C574        O579   1.268       .  A
C574       C1956   1.493       .  S
O575        C581   1.270       .  A
O575       Cd578   2.518       .  S
C576        O584   1.262       .  A
C576       C1980   1.491       .  S
C577        O582   1.267       .  A
C577        O580   1.265       .  A
C577       C1932   1.494       .  S
Cd578       O585   2.455       .  S
Cd578       O584   2.471       .  S
Cd578       O583   2.484       .  S
Cd578       O579   2.523       .  S
Cd578       O582   2.544       .  S
Cd578       O580   2.477       .  S
C581        O585   1.266       .  A
C581       C3975   1.490       .  S
O586        C589   1.269       .  A
O586       Cd591   2.488       .  S
C587        O596   1.264       .  A
C587        O592   1.268       .  A
C587       C1908   1.494       .  S
O588        C594   1.268       .  A
O588       Cd591   2.513       .  S
C589        O597   1.267       .  A
C589       C1959   1.490       .  S
C590        O595   1.267       .  A
C590        O593   1.266       .  A
C590       C1884   1.483       .  S
Cd591       O598   2.428       .  S
Cd591       O597   2.483       .  S
Cd591       O596   2.463       .  S
Cd591       O592   2.545       .  S
Cd591       O595   2.500       .  S
Cd591       O593   2.457       .  S
C594        O598   1.264       .  A
C594       C4023   1.483       .  S
O599        C602   1.268       .  A
O599       Cd604   2.511       .  S
C600        O609   1.264       .  A
C600        O605   1.268       .  A
C600       C2031   1.482       .  S
O601        C607   1.271       .  A
O601       Cd604   2.515       .  S
C602        O610   1.265       .  A
C602       C1860   1.487       .  S
C603        O608   1.268       .  A
C603        O606   1.264       .  A
C603       C1935   1.491       .  S
Cd604       O611   2.432       .  S
Cd604       O610   2.463       .  S
Cd604       O609   2.453       .  S
Cd604       O605   2.518       .  S
Cd604       O608   2.530       .  S
Cd604       O606   2.454       .  S
C607        O611   1.266       .  A
C607       C1836   1.487       .  S
O612        C615   1.269       .  A
O612       Cd617   2.509       .  S
C613        O622   1.264       .  A
C613        O618   1.268       .  A
C613       C1812   1.490       .  S
O614        C620   1.268       .  A
O614       Cd617   2.480       .  S
C615        O623   1.265       .  A
C615       C1788   1.493       .  S
C616        O621   1.267       .  A
C616        O619   1.264       .  A
C616       C2247   1.485       .  S
Cd617       O624   2.472       .  S
Cd617       O623   2.490       .  S
Cd617       O622   2.458       .  S
Cd617       O618   2.538       .  S
Cd617       O621   2.514       .  S
Cd617       O619   2.454       .  S
C620        O624   1.267       .  A
C620       C1887   1.484       .  S
O625        C628   1.268       .  A
O625       Cd630   2.533       .  S
C626        O635   1.266       .  A
C626        O631   1.268       .  A
C626       C1863   1.485       .  S
O627        C633   1.270       .  A
O627       Cd630   2.508       .  S
C628        O636   1.262       .  A
C628       C2127   1.483       .  S
C629        O634   1.267       .  A
C629        O632   1.265       .  A
C629       C1767   1.489       .  S
Cd630       O637   2.433       .  S
Cd630       O636   2.426       .  S
Cd630       O635   2.463       .  S
Cd630       O631   2.489       .  S
Cd630       O634   2.504       .  S
Cd630       O632   2.482       .  S
C633        O637   1.266       .  A
C633       C1740   1.485       .  S
O638        C641   1.268       .  A
O638       Cd643   2.525       .  S
C639        O648   1.269       .  A
C639        O644   1.264       .  A
C639       C2076   1.491       .  S
O640        C646   1.268       .  A
O640       Cd643   2.535       .  S
C641        O649   1.265       .  A
C641       C1791   1.496       .  S
C642        O647   1.268       .  A
C642        O645   1.267       .  A
C642       C1764   1.490       .  S
Cd643       O650   2.446       .  S
Cd643       O649   2.500       .  S
Cd643       O648   2.539       .  S
Cd643       O644   2.464       .  S
Cd643       O647   2.505       .  S
Cd643       O645   2.479       .  S
C646        O650   1.264       .  A
C646       C2316   1.490       .  S
O651        C654   1.269       .  A
O651       Cd656   2.435       .  S
C652        O661   1.268       .  A
C652        O657   1.268       .  A
C652       C1668   1.469       .  S
O653        C659   1.276       .  A
O653       Cd656   2.549   1_554  S
C654        O662   1.269       .  A
C654       C1719   1.468       .  S
C655        O660   1.275       .  A
C655        O658   1.264       .  A
C655       C2703   1.493       .  S
Cd656       O663   2.402   1_556  S
Cd656       O662   2.394       .  S
Cd656       O661   2.407   1_556  S
Cd656       O657   2.451   1_556  S
Cd656       O660   2.559       .  S
Cd656       O658   2.411       .  S
C659        O663   1.263       .  A
C659       C1692   1.489       .  S
O664        C667   1.270       .  A
O664       Cd669   2.455       .  S
C665        O674   1.268       .  A
C665        O670   1.269       .  A
C665       C2103   1.472       .  S
O666        C672   1.273       .  A
O666       Cd669   2.514       .  S
C667        O675   1.266       .  A
C667       C1716   1.466       .  S
C668        O673   1.271       .  A
C668        O671   1.262       .  A
C668       C1644   1.481       .  S
Cd669       O676   2.399       .  S
Cd669       O675   2.367       .  S
Cd669       O674   2.411       .  S
Cd669       O670   2.446       .  S
Cd669       O673   2.526   1_556  S
Cd669       O671   2.410   1_556  S
C672        O676   1.262       .  A
C672       C2847   1.480       .  S
O677        C680   1.268       .  A
O677       Cd682   2.462   1_655  S
C678        O687   1.267       .  A
C678        O683   1.269       .  A
C678       C1620   1.478       .  S
O679        C685   1.271       .  A
O679       Cd682   2.537       .  S
C680        O688   1.267       .  A
C680       C1572   1.476       .  S
C681        O686   1.272       .  A
C681        O684   1.263       .  A
C681       C1815   1.489       .  S
Cd682       O689   2.421       .  S
Cd682       O688   2.436   1_455  S
Cd682       O687   2.420       .  S
Cd682       O683   2.473       .  S
Cd682       O686   2.537   1_455  S
Cd682       O684   2.423   1_455  S
C685        O689   1.263       .  A
C685       C1596   1.486       .  S
O690        C693   1.269       .  A
O690       Cd695   2.499   1_455  S
C691        O700   1.268   1_455  A
C691        O696   1.271       .  A
C691       C2895   1.479       .  S
O692        C698   1.262       .  A
O692       Cd695   2.459   1_455  S
C693        O701   1.266       .  A
C693       C1623   1.481       .  S
C694        O699   1.273       .  A
C694        O697   1.261       .  A
C694       C1911   1.499       .  S
Cd695       O702   2.545   1_655  S
Cd695       O701   2.432   1_655  S
Cd695       O700   2.404       .  S
Cd695       O696   2.490   1_655  S
Cd695       O699   2.599       .  S
Cd695       O697   2.412       .  S
C698        O702   1.270       .  A
C698       C1551   1.491       .  S
O703        C706   1.268       .  A
O703       Cd708   2.536       .  S
C704        O713   1.265       .  A
C704        O709   1.270       .  A
C704       C1695   1.488       .  S
O705        C711   1.271       .  A
O705       Cd708   2.542       .  S
C706        O714   1.265       .  A
C706       C1500   1.495       .  S
C707        O712   1.269       .  A
C707        O710   1.263       .  A
C707       C1476   1.493       .  S
Cd708       O715   2.476       .  S
Cd708       O714   2.489       .  S
Cd708       O713   2.436       .  S
Cd708       O709   2.531       .  S
Cd708       O712   2.543       .  S
Cd708       O710   2.469       .  S
C711        O715   1.266       .  A
C711       C1524   1.497       .  S
O716        C719   1.268       .  A
O716       Cd721   2.498       .  S
C717        O726   1.269       .  A
C717        O722   1.263       .  A
C717       C1599   1.481       .  S
O718        C724   1.271       .  A
O718       Cd721   2.528       .  S
C719        O727   1.267       .  A
C719       C1503   1.490       .  S
C720        O725   1.267       .  A
C720        O723   1.265       .  A
C720       C1455   1.491       .  S
Cd721       O728   2.435       .  S
Cd721       O727   2.476       .  S
Cd721       O726   2.529       .  S
Cd721       O722   2.424       .  S
Cd721       O725   2.519       .  S
Cd721       O723   2.488       .  S
C724        O728   1.264       .  A
C724       C1431   1.487       .  S
O729        C732   1.269       .  A
O729       Cd734   2.508       .  S
C730        O739   1.264       .  A
C730        O735   1.268       .  A
C730       C1647   1.487       .  S
O731        C737   1.270       .  A
O731       Cd734   2.518       .  S
C732        O740   1.265       .  A
C732       C1404   1.491       .  S
C733        O738   1.269       .  A
C733        O736   1.265       .  A
C733       C1527   1.494       .  S
Cd734       O741   2.451       .  S
Cd734       O740   2.481       .  S
Cd734       O739   2.470       .  S
Cd734       O735   2.535       .  S
Cd734       O738   2.530       .  S
Cd734       O736   2.469       .  S
C737        O741   1.266       .  A
C737       C1743   1.489       .  S
O742        C745   1.267       .  A
O742       Cd747   2.520       .  S
C743        O752   1.266       .  A
C743        O748   1.267       .  A
C743       C1407   1.490       .  S
O744        C750   1.271       .  A
O744       Cd747   2.518       .  S
C745        O753   1.263       .  A
C745       C1380   1.486       .  S
C746        O751   1.268       .  A
C746        O749   1.265       .  A
C746       C1356   1.495       .  S
Cd747       O754   2.427       .  S
Cd747       O753   2.473       .  S
Cd747       O752   2.496       .  S
Cd747       O748   2.489       .  S
Cd747       O751   2.530       .  S
Cd747       O749   2.483       .  S
C750        O754   1.264       .  A
C750       C1839   1.485       .  S
O755        C758   1.265       .  A
O755       Cd760   2.473       .  S
C756        O765   1.264       .  A
C756        O761   1.266       .  A
C756       C1332   1.491       .  S
O757        C763   1.266       .  A
O757       Cd760   2.524       .  S
C758        O766   1.266       .  A
C758       C1548   1.490       .  S
C759        O764   1.267       .  A
C759        O762   1.265       .  A
C759       C1452   1.491       .  S
Cd760       O767   2.480       .  S
Cd760       O766   2.520       .  S
Cd760       O765   2.496       .  S
Cd760       O761   2.519       .  S
Cd760       O764   2.524       .  S
Cd760       O762   2.479       .  S
C763        O767   1.264       .  A
C763       C2631   1.491       .  S
O768        C771   1.268       .  A
O768       Cd773   2.487       .  S
C769        O778   1.262       .  A
C769        O774   1.267       .  A
C769       C1308   1.483       .  S
O770        C776   1.270       .  A
O770       Cd773   2.516       .  S
C771        O779   1.268       .  A
C771       C1335   1.487       .  S
C772        O777   1.268       .  A
C772        O775   1.265       .  A
C772       C1359   1.499       .  S
Cd773       O780   2.475       .  S
Cd773       O779   2.468       .  S
Cd773       O778   2.445       .  S
Cd773       O774   2.522       .  S
Cd773       O777   2.545       .  S
Cd773       O775   2.504       .  S
C776        O780   1.265       .  A
C776       C2727   1.491       .  S
O781        C784   1.269       .  A
O781       Cd786   2.432       .  S
C782        O791   1.267       .  A
C782        O787   1.268       .  A
C782       C1671   1.470       .  S
O783        C789   1.273       .  A
O783       Cd786   2.540       .  S
C784        O792   1.268       .  A
C784       C1287   1.472       .  S
C785        O790   1.272       .  A
C785        O788   1.262       .  A
C785       C1260   1.486       .  S
Cd786       O793   2.419       .  S
Cd786       O792   2.429       .  S
Cd786       O791   2.406   1_556  S
Cd786       O787   2.456   1_556  S
Cd786       O790   2.541   1_556  S
Cd786       O788   2.415   1_556  S
C789        O793   1.261       .  A
C789       C3087   1.487       .  S
O794        C797   1.270       .  A
O794       Cd799   2.476   1_554  S
C795        O804   1.266       .  A
C795        O800   1.269       .  A
C795       C1284   1.474       .  S
O796        C802   1.269       .  A
O796       Cd799   2.524       .  S
C797        O805   1.267       .  A
C797       C2559   1.477       .  S
C798        O803   1.271       .  A
C798        O801   1.262       .  A
C798       C1236   1.485       .  S
Cd799       O806   2.436       .  S
Cd799       O805   2.412   1_556  S
Cd799       O804   2.422       .  S
Cd799       O800   2.463       .  S
Cd799       O803   2.540   1_556  S
Cd799       O801   2.411   1_556  S
C802        O806   1.263       .  A
C802       C3183   1.486       .  S
O807        C810   1.269   1_565  A
O807       Cd812   2.474       .  S
C808        O817   1.267       .  A
C808        O813   1.270       .  A
C808       C1212   1.474       .  S
O809        C815   1.272       .  A
O809       Cd812   2.547       .  S
C810        O818   1.267       .  A
C810       C2991   1.476       .  S
C811        O816   1.273       .  A
C811        O814   1.263       .  A
C811       C1188   1.484       .  S
Cd812       O819   2.424       .  S
Cd812       O818   2.412   1_565  S
Cd812       O817   2.423       .  S
Cd812       O813   2.454       .  S
Cd812       O816   2.537   1_565  S
Cd812       O814   2.415   1_565  S
C815        O819   1.262       .  A
C815       C1311   1.488       .  S
O820        C823   1.269   1_565  A
O820       Cd825   2.455       .  S
C821        O830   1.267       .  A
C821        O826   1.268       .  A
C821       C1215   1.473       .  S
O822        C828   1.272       .  A
O822       Cd825   2.526   1_545  S
C823        O831   1.267       .  A
C823       C2007   1.475       .  S
C824        O829   1.271       .  A
C824        O827   1.263       .  A
C824       C1383   1.487       .  S
Cd825       O832   2.429   1_565  S
Cd825       O831   2.420   1_565  S
Cd825       O830   2.427       .  S
Cd825       O826   2.453       .  S
Cd825       O829   2.541       .  S
Cd825       O827   2.433       .  S
C828        O832   1.263       .  A
C828       C1164   1.486       .  S
O833        C836   1.270       .  A
O833       Cd838   2.463       .  S
C834        O843   1.266       .  A
C834        O839   1.269       .  A
C834       C3447   1.474       .  S
O835        C841   1.270       .  A
O835       Cd838   2.522       .  S
C836        O844   1.268   1_655  A
C836       C1143   1.478   1_655  S
C837        O842   1.272       .  A
C837        O840   1.260       .  A
C837       C1116   1.486       .  S
Cd838       O845   2.444       .  S
Cd838       O844   2.425   1_655  S
Cd838       O843   2.418       .  S
Cd838       O839   2.470       .  S
Cd838       O842   2.551   1_655  S
Cd838       O840   2.394   1_655  S
C841        O845   1.262       .  A
C841       C2175   1.486       .  S
O846        C849   1.269       .  A
O846       Cd851   2.469       .  S
C847        O856   1.267       .  A
C847        O852   1.269   1_455  A
C847       C1140   1.477       .  S
O848        C854   1.271       .  A
O848       Cd851   2.528       .  S
C849        O857   1.267       .  A
C849       C1575   1.476       .  S
C850        O855   1.271       .  A
C850        O853   1.262       .  A
C850       C1092   1.487       .  S
Cd851       O858   2.421       .  S
Cd851       O857   2.430       .  S
Cd851       O856   2.425   1_655  S
Cd851       O852   2.466       .  S
Cd851       O855   2.550   1_655  S
Cd851       O853   2.393   1_655  S
C854        O858   1.263       .  A
C854       C2295   1.485       .  S
O859        C862   1.265       .  A
O859       Cd864   2.509       .  S
C860        O869   1.265       .  A
C860        O865   1.266       .  A
C860       C1239   1.485       .  S
O861        C867   1.269       .  A
O861       Cd864   2.504       .  S
C862        O870   1.265       .  A
C862       C1068   1.486       .  S
C863        O868   1.266       .  A
C863        O866   1.262       .  A
C863       C2439   1.488       .  S
Cd864       O871   2.496       .  S
Cd864       O870   2.469       .  S
Cd864       O869   2.459       .  S
Cd864       O865   2.510       .  S
Cd864       O868   2.539       .  S
Cd864       O866   2.449       .  S
C867        O871   1.268       .  A
C867       C1047   1.495       .  S
O872        C875   1.267       .  A
O872       Cd877   2.511       .  S
C873        O882   1.264       .  A
C873        O878   1.267       .  A
C873       C1167   1.485       .  S
O874        C880   1.267       .  A
O874       Cd877   2.521       .  S
C875        O883   1.264       .  A
C875       C1071   1.486       .  S
C876        O881   1.269       .  A
C876        O879   1.268       .  A
C876       C1020   1.489       .  S
Cd877       O884   2.442       .  S
Cd877       O883   2.462       .  S
Cd877       O882   2.460       .  S
Cd877       O878   2.508       .  S
Cd877       O881   2.500       .  S
Cd877       O879   2.465       .  S
C880        O884   1.262       .  A
C880       C2367   1.484       .  S
O885        C888   1.265       .  A
O885       Cd890   2.521       .  S
C886        O895   1.265       .  A
C886        O891   1.265       .  A
C886       C1263   1.488       .  S
O887        C893   1.268       .  A
O887       Cd890   2.536       .  S
C888        O896   1.263       .  A
C888        C999   1.486       .  S
C889        O894   1.269       .  A
C889        O892   1.267       .  A
C889       C1044   1.497       .  S
Cd890       O897   2.465       .  S
Cd890       O896   2.467       .  S
Cd890       O895   2.482       .  S
Cd890       O891   2.504       .  S
Cd890       O894   2.525       .  S
Cd890       O892   2.498       .  S
C893        O897   1.263       .  A
C893       C1479   1.492       .  S
O898        C901   1.267       .  A
O898       Cd903   2.493       .  S
C899        O908   1.264       .  A
C899        O904   1.268       .  A
C899       C1095   1.481       .  S
O900        C906   1.268       .  A
O900       Cd903   2.521       .  S
C901        O909   1.266       .  A
C901        C996   1.484       .  S
C902        O907   1.270       .  A
C902        O905   1.265       .  A
C902       C1428   1.484       .  S
Cd903       O910   2.445       .  S
Cd903       O909   2.447       .  S
Cd903       O908   2.416       .  S
Cd903       O904   2.512       .  S
Cd903       O907   2.505       .  S
Cd903       O905   2.431       .  S
C906        O910   1.265       .  A
C906        C972   1.488       .  S
O911        C914   1.268       .  A
O911       Cd916   2.505       .  S
C912        O921   1.264       .  A
C912        O917   1.267       .  A
C912        C948   1.489       .  S
O913        C919   1.266       .  A
O913       Cd916   2.513       .  S
C914        O922   1.266       .  A
C914       C1191   1.486       .  S
C915        O920   1.267       .  A
C915        O918   1.266       .  A
C915       C1023   1.490       .  S
Cd916       O923   2.479       .  S
Cd916       O922   2.462       .  S
Cd916       O921   2.477       .  S
Cd916       O917   2.519       .  S
Cd916       O920   2.504       .  S
Cd916       O918   2.488       .  S
C919        O923   1.262       .  A
C919       C3255   1.488       .  S
O924        C927   1.268       .  A
O924       Cd929   2.515       .  S
C925        O934   1.264       .  A
C925        O930   1.268       .  A
C925       C1119   1.488       .  S
O926        C932   1.269       .  A
O926       Cd929   2.527       .  S
C927        O935   1.266       .  A
C927        C951   1.490       .  S
C928        O933   1.267       .  A
C928        O931   1.266       .  A
C928        C975   1.490       .  S
Cd929       O936   2.437       .  S
Cd929       O935   2.469       .  S
Cd929       O934   2.457       .  S
Cd929       O930   2.531       .  S
Cd929       O933   2.505       .  S
Cd929       O931   2.483       .  S
C932        O936   1.265       .  A
C932       C3327   1.487       .  S
C937        C938   1.399       .  A
C937        C942   1.404       .  A
C937        H953   1.084       .  S
C938        C939   1.404       .  A
C938        H954   1.084       .  S
C939        C949   1.405       .  A
C939        C940   1.411       .  A
C940        C946   1.412       .  A
C940        C941   1.416       .  A
C941        C943   1.412       .  A
C941        C942   1.411       .  A
C942        C950   1.405       .  A
C943        C952   1.410       .  A
C943        C944   1.405       .  A
C944        C945   1.402       .  A
C944        H955   1.083       .  S
C945        C946   1.405       .  A
C945        H956   1.083       .  S
C946        C947   1.409       .  A
C947        C948   1.409       .  A
C947        H957   1.084       .  S
C948        C949   1.409       .  A
C949        H958   1.084       .  S
C950        C951   1.409       .  A
C950        H959   1.084       .  S
C951        C952   1.410       .  A
C952        H960   1.084       .  S
C961        C962   1.404       .  A
C961        C966   1.406       .  A
C961        H977   1.083       .  S
C962        C963   1.405       .  A
C962        H978   1.083       .  S
C963        C973   1.412       .  A
C963        C964   1.413       .  A
C964        C970   1.410       .  A
C964        C965   1.416       .  A
C965        C967   1.412       .  A
C965        C966   1.411       .  A
C966        C974   1.410       .  A
C967        C976   1.404       .  A
C967        C968   1.403       .  A
C968        C969   1.398       .  A
C968        H979   1.084       .  S
C969        C970   1.403       .  A
C969        H980   1.084       .  S
C970        C971   1.401       .  A
C971        C972   1.407       .  A
C971        H981   1.084       .  S
C972        C973   1.411       .  A
C973        H982   1.084       .  S
C974        C975   1.411       .  A
C974        H983   1.084       .  S
C975        C976   1.407       .  A
C976        H984   1.084       .  S
C985        C986   1.397       .  A
C985        C990   1.403       .  A
C985       H1001   1.084       .  S
C986        C987   1.402       .  A
C986       H1002   1.084       .  S
C987        C997   1.400       .  A
C987        C988   1.411       .  A
C988        C994   1.412       .  A
C988        C989   1.414       .  A
C989        C991   1.412       .  A
C989        C990   1.411       .  A
C990        C998   1.401       .  A
C991       C1000   1.410       .  A
C991        C992   1.405       .  A
C992        C993   1.403       .  A
C992       H1003   1.083       .  S
C993        C994   1.405       .  A
C993       H1004   1.083       .  S
C994        C995   1.409       .  A
C995        C996   1.410       .  A
C995       H1005   1.084       .  S
C996        C997   1.406       .  A
C997       H1006   1.084       .  S
C998        C999   1.406       .  A
C998       H1007   1.084       .  S
C999       C1000   1.410       .  A
C1000      H1008   1.084       .  S
C1009      C1010   1.400       .  A
C1009      C1014   1.404       .  A
C1009      H1025   1.083       .  S
C1010      C1011   1.404       .  A
C1010      H1026   1.084       .  S
C1011      C1021   1.404       .  A
C1011      C1012   1.411       .  A
C1012      C1018   1.412       .  A
C1012      C1013   1.416       .  A
C1013      C1015   1.411       .  A
C1013      C1014   1.412       .  A
C1014      C1022   1.406       .  A
C1015      C1024   1.409       .  A
C1015      C1016   1.405       .  A
C1016      C1017   1.402       .  A
C1016      H1027   1.083       .  S
C1017      C1018   1.405       .  A
C1017      H1028   1.083       .  S
C1018      C1019   1.409       .  A
C1019      C1020   1.410       .  A
C1019      H1029   1.084       .  S
C1020      C1021   1.408       .  A
C1021      H1030   1.084       .  S
C1022      C1023   1.409       .  A
C1022      H1031   1.084       .  S
C1023      C1024   1.410       .  A
C1024      H1032   1.084       .  S
C1033      C1034   1.402       .  A
C1033      C1038   1.405       .  A
C1033      H1049   1.083       .  S
C1034      C1035   1.405       .  A
C1034      H1050   1.083       .  S
C1035      C1045   1.411       .  A
C1035      C1036   1.412       .  A
C1036      C1042   1.411       .  A
C1036      C1037   1.419       .  A
C1037      C1039   1.412       .  A
C1037      C1038   1.411       .  A
C1038      C1046   1.410       .  A
C1039      C1048   1.409       .  A
C1039      C1040   1.405       .  A
C1040      C1041   1.402       .  A
C1040      H1051   1.083       .  S
C1041      C1042   1.405       .  A
C1041      H1052   1.083       .  S
C1042      C1043   1.409       .  A
C1043      C1044   1.411       .  A
C1043      H1053   1.084       .  S
C1044      C1045   1.410       .  A
C1045      H1054   1.084       .  S
C1046      C1047   1.410       .  A
C1046      H1055   1.084       .  S
C1047      C1048   1.411       .  A
C1048      H1056   1.084       .  S
C1057      C1058   1.397       .  A
C1057      C1062   1.403       .  A
C1057      H1073   1.084       .  S
C1058      C1059   1.403       .  A
C1058      H1074   1.084       .  S
C1059      C1069   1.402       .  A
C1059      C1060   1.411       .  A
C1060      C1066   1.412       .  A
C1060      C1061   1.415       .  A
C1061      C1063   1.412       .  A
C1061      C1062   1.411       .  A
C1062      C1070   1.402       .  A
C1063      C1072   1.410       .  A
C1063      C1064   1.405       .  A
C1064      C1065   1.403       .  A
C1064      H1075   1.083       .  S
C1065      C1066   1.405       .  A
C1065      H1076   1.083       .  S
C1066      C1067   1.410       .  A
C1067      C1068   1.410       .  A
C1067      H1077   1.084       .  S
C1068      C1069   1.406       .  A
C1069      H1078   1.084       .  S
C1070      C1071   1.406       .  A
C1070      H1079   1.084       .  S
C1071      C1072   1.410       .  A
C1072      H1080   1.084       .  S
C1081      C1082   1.406       .  A
C1081      C1086   1.406       .  A
C1081      H1097   1.083       .  S
C1082      C1083   1.406       .  A
C1082      H1098   1.083       .  S
C1083      C1093   1.415       .  A
C1083      C1084   1.413       .  A
C1084      C1090   1.409       .  A
C1084      C1085   1.413       .  A
C1085      C1087   1.411       .  A
C1085      C1086   1.412       .  A
C1086      C1094   1.412       .  A
C1087      C1096   1.395       .  A
C1087      C1088   1.401       .  A
C1088      C1089   1.393       .  A
C1088      H1099   1.084       .  S
C1089      C1090   1.402       .  A
C1089      H1100   1.084       .  S
C1090      C1091   1.394       .  A
C1091      C1092   1.407       .  A
C1091      H1101   1.084       .  S
C1092      C1093   1.411       .  A
C1093      H1102   1.084       .  S
C1094      C1095   1.410       .  A
C1094      H1103   1.084       .  S
C1095      C1096   1.404       .  A
C1096      H1104   1.084       .  S
C1105      C1106   1.396       .  A
C1105      C1110   1.402       .  A
C1105      H1121   1.084       .  S
C1106      C1107   1.403       .  A
C1106      H1122   1.084       .  S
C1107      C1117   1.398       .  A
C1107      C1108   1.409       .  A
C1108      C1114   1.413       .  A
C1108      C1109   1.415       .  A
C1109      C1111   1.412       .  A
C1109      C1110   1.411       .  A
C1110      C1118   1.401       .  A
C1111      C1120   1.412       .  A
C1111      C1112   1.406       .  A
C1112      C1113   1.404       .  A
C1112      H1123   1.083       .  S
C1113      C1114   1.405       .  A
C1113      H1124   1.083       .  S
C1114      C1115   1.413       .  A
C1115      C1116   1.409       .  A
C1115      H1125   1.084       .  S
C1116      C1117   1.409       .  A
C1117      H1126   1.084       .  S
C1118      C1119   1.407       .  A
C1118      H1127   1.084       .  S
C1119      C1120   1.411       .  A
C1120      H1128   1.084       .  S
C1129      C1130   1.396       .  A
C1129      C1134   1.403       .  A
C1129      H1145   1.084       .  S
C1130      C1131   1.402       .  A
C1130      H1146   1.084       .  S
C1131      C1141   1.399       .  A
C1131      C1132   1.411       .  A
C1132      C1138   1.412       .  A
C1132      C1133   1.411       .  A
C1133      C1135   1.412       .  A
C1133      C1134   1.411       .  A
C1134      C1142   1.399       .  A
C1135      C1144   1.405   1_455  A
C1135      C1136   1.404   1_455  A
C1136      C1137   1.400       .  A
C1136      H1147   1.083       .  S
C1137      C1138   1.404   1_655  A
C1137      H1148   1.083       .  S
C1138      C1139   1.405       .  A
C1139      C1140   1.407       .  A
C1139      H1149   1.084   1_455  S
C1140      C1141   1.406       .  A
C1141      H1150   1.084       .  S
C1142      C1143   1.406       .  A
C1142      H1151   1.084       .  S
C1143      C1144   1.407   1_455  A
C1144      H1152   1.084       .  S
C1153      C1154   1.398       .  A
C1153      C1158   1.403       .  A
C1153      H1169   1.084       .  S
C1154      C1155   1.404       .  A
C1154      H1170   1.084       .  S
C1155      C1165   1.403       .  A
C1155      C1156   1.411       .  A
C1156      C1162   1.413       .  A
C1156      C1157   1.415       .  A
C1157      C1159   1.412       .  A
C1157      C1158   1.411       .  A
C1158      C1166   1.403       .  A
C1159      C1168   1.409       .  A
C1159      C1160   1.405       .  A
C1160      C1161   1.403       .  A
C1160      H1171   1.083       .  S
C1161      C1162   1.405       .  A
C1161      H1172   1.083       .  S
C1162      C1163   1.410       .  A
C1163      C1164   1.408       .  A
C1163      H1173   1.084       .  S
C1164      C1165   1.409       .  A
C1165      H1174   1.084       .  S
C1166      C1167   1.407       .  A
C1166      H1175   1.084       .  S
C1167      C1168   1.409       .  A
C1168      H1176   1.084       .  S
C1177      C1178   1.403       .  A
C1177      C1182   1.405       .  A
C1177      H1193   1.083       .  S
C1178      C1179   1.405       .  A
C1178      H1194   1.083       .  S
C1179      C1189   1.411       .  A
C1179      C1180   1.413       .  A
C1180      C1186   1.410       .  A
C1180      C1181   1.415       .  A
C1181      C1183   1.412       .  A
C1181      C1182   1.411       .  A
C1182      C1190   1.409       .  A
C1183      C1192   1.403       .  A
C1183      C1184   1.403       .  A
C1184      C1185   1.398       .  A
C1184      H1195   1.084       .  S
C1185      C1186   1.403       .  A
C1185      H1196   1.084       .  S
C1186      C1187   1.402       .  A
C1187      C1188   1.408       .  A
C1187      H1197   1.085       .  S
C1188      C1189   1.408       .  A
C1189      H1198   1.084       .  S
C1190      C1191   1.410       .  A
C1190      H1199   1.084       .  S
C1191      C1192   1.407       .  A
C1192      H1200   1.084       .  S
C1201      C1202   1.399       .  A
C1201      C1206   1.403       .  A
C1201      H1217   1.084   1_565  S
C1202      C1203   1.403       .  A
C1202      H1218   1.084   1_565  S
C1203      C1213   1.402       .  A
C1203      C1204   1.412       .  A
C1204      C1210   1.411       .  A
C1204      C1205   1.409       .  A
C1205      C1207   1.411       .  A
C1205      C1206   1.412       .  A
C1206      C1214   1.402       .  A
C1207      C1216   1.399       .  A
C1207      C1208   1.402       .  A
C1208      C1209   1.397       .  A
C1208      H1219   1.084       .  S
C1209      C1210   1.403       .  A
C1209      H1220   1.084       .  S
C1210      C1211   1.399       .  A
C1211      C1212   1.406       .  A
C1211      H1221   1.084       .  S
C1212      C1213   1.406       .  A
C1213      H1222   1.084   1_565  S
C1214      C1215   1.406       .  A
C1214      H1223   1.084       .  S
C1215      C1216   1.405       .  A
C1216      H1224   1.084       .  S
C1225      C1226   1.404       .  A
C1225      C1230   1.406       .  A
C1225      H1241   1.083       .  S
C1226      C1227   1.405       .  A
C1226      H1242   1.083       .  S
C1227      C1237   1.412       .  A
C1227      C1228   1.413       .  A
C1228      C1234   1.410       .  A
C1228      C1229   1.415       .  A
C1229      C1231   1.412       .  A
C1229      C1230   1.411       .  A
C1230      C1238   1.410       .  A
C1231      C1240   1.401       .  A
C1231      C1232   1.402       .  A
C1232      C1233   1.396       .  A
C1232      H1243   1.084       .  S
C1233      C1234   1.403       .  A
C1233      H1244   1.084       .  S
C1234      C1235   1.399       .  A
C1235      C1236   1.407       .  A
C1235      H1245   1.085       .  S
C1236      C1237   1.409       .  A
C1237      H1246   1.084       .  S
C1238      C1239   1.410       .  A
C1238      H1247   1.084       .  S
C1239      C1240   1.406       .  A
C1240      H1248   1.084       .  S
C1249      C1250   1.403       .  A
C1249      C1254   1.405       .  A
C1249      H1265   1.083       .  S
C1250      C1251   1.405       .  A
C1250      H1266   1.083       .  S
C1251      C1261   1.412       .  A
C1251      C1252   1.413       .  A
C1252      C1258   1.410       .  A
C1252      C1253   1.415       .  A
C1253      C1255   1.412       .  A
C1253      C1254   1.411       .  A
C1254      C1262   1.409       .  A
C1255      C1264   1.403       .  A
C1255      C1256   1.403       .  A
C1256      C1257   1.398       .  A
C1256      H1267   1.084       .  S
C1257      C1258   1.403       .  A
C1257      H1268   1.084       .  S
C1258      C1259   1.401       .  A
C1259      C1260   1.408       .  A
C1259      H1269   1.084       .  S
C1260      C1261   1.409       .  A
C1261      H1270   1.084       .  S
C1262      C1263   1.411       .  A
C1262      H1271   1.084       .  S
C1263      C1264   1.407       .  A
C1264      H1272   1.084       .  S
C1273      C1274   1.397       .  A
C1273      C1278   1.403       .  A
C1273      H1289   1.084       .  S
C1274      C1275   1.403       .  A
C1274      H1290   1.084       .  S
C1275      C1285   1.399       .  A
C1275      C1276   1.411       .  A
C1276      C1282   1.412       .  A
C1276      C1277   1.409       .  A
C1277      C1279   1.411       .  A
C1277      C1278   1.412       .  A
C1278      C1286   1.400       .  A
C1279      C1288   1.400       .  A
C1279      C1280   1.403   1_556  A
C1280      C1281   1.398       .  A
C1280      H1291   1.084       .  S
C1281      C1282   1.403   1_554  A
C1281      H1292   1.084       .  S
C1282      C1283   1.402       .  A
C1283      C1284   1.405       .  A
C1283      H1293   1.084       .  S
C1284      C1285   1.406       .  A
C1285      H1294   1.084       .  S
C1286      C1287   1.405       .  A
C1286      H1295   1.084       .  S
C1287      C1288   1.405       .  A
C1288      H1296   1.084   1_556  S
C1297      C1298   1.403       .  A
C1297      C1302   1.405       .  A
C1297      H1313   1.083       .  S
C1298      C1299   1.405       .  A
C1298      H1314   1.083       .  S
C1299      C1309   1.409       .  A
C1299      C1300   1.412       .  A
C1300      C1306   1.411       .  A
C1300      C1301   1.415       .  A
C1301      C1303   1.410       .  A
C1301      C1302   1.413       .  A
C1302      C1310   1.412       .  A
C1303      C1312   1.402       .  A
C1303      C1304   1.404       .  A
C1304      C1305   1.398       .  A
C1304      H1315   1.084       .  S
C1305      C1306   1.403       .  A
C1305      H1316   1.084       .  S
C1306      C1307   1.401       .  A
C1307      C1308   1.407       .  A
C1307      H1317   1.084       .  S
C1308      C1309   1.408       .  A
C1309      H1318   1.084       .  S
C1310      C1311   1.408       .  A
C1310      H1319   1.084       .  S
C1311      C1312   1.409       .  A
C1312      H1320   1.084       .  S
C1321      C1322   1.402       .  A
C1321      C1326   1.405       .  A
C1321      H1337   1.083       .  S
C1322      C1323   1.405       .  A
C1322      H1338   1.083       .  S
C1323      C1333   1.409       .  A
C1323      C1324   1.412       .  A
C1324      C1330   1.411       .  A
C1324      C1325   1.416       .  A
C1325      C1327   1.411       .  A
C1325      C1326   1.412       .  A
C1326      C1334   1.408       .  A
C1327      C1336   1.405       .  A
C1327      C1328   1.403       .  A
C1328      C1329   1.400       .  A
C1328      H1339   1.084       .  S
C1329      C1330   1.404       .  A
C1329      H1340   1.083       .  S
C1330      C1331   1.406       .  A
C1331      C1332   1.409       .  A
C1331      H1341   1.084       .  S
C1332      C1333   1.410       .  A
C1333      H1342   1.084       .  S
C1334      C1335   1.410       .  A
C1334      H1343   1.084       .  S
C1335      C1336   1.408       .  A
C1336      H1344   1.084       .  S
C1345      C1346   1.401       .  A
C1345      C1350   1.405       .  A
C1345      H1361   1.083       .  S
C1346      C1347   1.404       .  A
C1346      H1362   1.084       .  S
C1347      C1357   1.407       .  A
C1347      C1348   1.411       .  A
C1348      C1354   1.412       .  A
C1348      C1349   1.420       .  A
C1349      C1351   1.412       .  A
C1349      C1350   1.411       .  A
C1350      C1358   1.409       .  A
C1351      C1360   1.413       .  A
C1351      C1352   1.406       .  A
C1352      C1353   1.404       .  A
C1352      H1363   1.083       .  S
C1353      C1354   1.405       .  A
C1353      H1364   1.083       .  S
C1354      C1355   1.413       .  A
C1355      C1356   1.411       .  A
C1355      H1365   1.084       .  S
C1356      C1357   1.410       .  A
C1357      H1366   1.084       .  S
C1358      C1359   1.411       .  A
C1358      H1367   1.084       .  S
C1359      C1360   1.412       .  A
C1360      H1368   1.084       .  S
C1369      C1370   1.399       .  A
C1369      C1374   1.404       .  A
C1369      H1385   1.084       .  S
C1370      C1371   1.403       .  A
C1370      H1386   1.084       .  S
C1371      C1381   1.404       .  A
C1371      C1372   1.412       .  A
C1372      C1378   1.412       .  A
C1372      C1373   1.416       .  A
C1373      C1375   1.413       .  A
C1373      C1374   1.410       .  A
C1374      C1382   1.403       .  A
C1375      C1384   1.412       .  A
C1375      C1376   1.405       .  A
C1376      C1377   1.403       .  A
C1376      H1387   1.083       .  S
C1377      C1378   1.405       .  A
C1377      H1388   1.083       .  S
C1378      C1379   1.410       .  A
C1379      C1380   1.408       .  A
C1379      H1389   1.084       .  S
C1380      C1381   1.407       .  A
C1381      H1390   1.084       .  S
C1382      C1383   1.408       .  A
C1382      H1391   1.084       .  S
C1383      C1384   1.409       .  A
C1384      H1392   1.084       .  S
C1393      C1394   1.400       .  A
C1393      C1398   1.404       .  A
C1393      H1409   1.083       .  S
C1394      C1395   1.404       .  A
C1394      H1410   1.083       .  S
C1395      C1405   1.407       .  A
C1395      C1396   1.412       .  A
C1396      C1402   1.411       .  A
C1396      C1397   1.417       .  A
C1397      C1399   1.412       .  A
C1397      C1398   1.411       .  A
C1398      C1406   1.406       .  A
C1399      C1408   1.409       .  A
C1399      C1400   1.405       .  A
C1400      C1401   1.402       .  A
C1400      H1411   1.083       .  S
C1401      C1402   1.405       .  A
C1401      H1412   1.083       .  S
C1402      C1403   1.408       .  A
C1403      C1404   1.411       .  A
C1403      H1413   1.084       .  S
C1404      C1405   1.408       .  A
C1405      H1414   1.084       .  S
C1406      C1407   1.408       .  A
C1406      H1415   1.084       .  S
C1407      C1408   1.410       .  A
C1408      H1416   1.084       .  S
C1417      C1418   1.397       .  A
C1417      C1422   1.403       .  A
C1417      H1433   1.084       .  S
C1418      C1419   1.403       .  A
C1418      H1434   1.084       .  S
C1419      C1429   1.400       .  A
C1419      C1420   1.411       .  A
C1420      C1426   1.412       .  A
C1420      C1421   1.414       .  A
C1421      C1423   1.412       .  A
C1421      C1422   1.410       .  A
C1422      C1430   1.401       .  A
C1423      C1432   1.410       .  A
C1423      C1424   1.405       .  A
C1424      C1425   1.403       .  A
C1424      H1435   1.083       .  S
C1425      C1426   1.405       .  A
C1425      H1436   1.083       .  S
C1426      C1427   1.409       .  A
C1427      C1428   1.408       .  A
C1427      H1437   1.084       .  S
C1428      C1429   1.407       .  A
C1429      H1438   1.084       .  S
C1430      C1431   1.408       .  A
C1430      H1439   1.084       .  S
C1431      C1432   1.409       .  A
C1432      H1440   1.084       .  S
C1441      C1442   1.400       .  A
C1441      C1446   1.404       .  A
C1441      H1457   1.083       .  S
C1442      C1443   1.404       .  A
C1442      H1458   1.084       .  S
C1443      C1453   1.405       .  A
C1443      C1444   1.411       .  A
C1444      C1450   1.412       .  A
C1444      C1445   1.418       .  A
C1445      C1447   1.412       .  A
C1445      C1446   1.412       .  A
C1446      C1454   1.407       .  A
C1447      C1456   1.411       .  A
C1447      C1448   1.405       .  A
C1448      C1449   1.403       .  A
C1448      H1459   1.083       .  S
C1449      C1450   1.405       .  A
C1449      H1460   1.083       .  S
C1450      C1451   1.411       .  A
C1451      C1452   1.410       .  A
C1451      H1461   1.084       .  S
C1452      C1453   1.409       .  A
C1453      H1462   1.084       .  S
C1454      C1455   1.409       .  A
C1454      H1463   1.084       .  S
C1455      C1456   1.410       .  A
C1456      H1464   1.084       .  S
C1465      C1466   1.399       .  A
C1465      C1470   1.404       .  A
C1465      H1481   1.084       .  S
C1466      C1467   1.404       .  A
C1466      H1482   1.084       .  S
C1467      C1477   1.405       .  A
C1467      C1468   1.411       .  A
C1468      C1474   1.412       .  A
C1468      C1469   1.418       .  A
C1469      C1471   1.412       .  A
C1469      C1470   1.411       .  A
C1470      C1478   1.404       .  A
C1471      C1480   1.412       .  A
C1471      C1472   1.405       .  A
C1472      C1473   1.404       .  A
C1472      H1483   1.083       .  S
C1473      C1474   1.406       .  A
C1473      H1484   1.083       .  S
C1474      C1475   1.413       .  A
C1475      C1476   1.410       .  A
C1475      H1485   1.084       .  S
C1476      C1477   1.410       .  A
C1477      H1486   1.084       .  S
C1478      C1479   1.409       .  A
C1478      H1487   1.084       .  S
C1479      C1480   1.410       .  A
C1480      H1488   1.084       .  S
C1489      C1490   1.403       .  A
C1489      C1494   1.405       .  A
C1489      H1505   1.083       .  S
C1490      C1491   1.405       .  A
C1490      H1506   1.083       .  S
C1491      C1501   1.412       .  A
C1491      C1492   1.412       .  A
C1492      C1498   1.411       .  A
C1492      C1493   1.418       .  A
C1493      C1495   1.412       .  A
C1493      C1494   1.411       .  A
C1494      C1502   1.410       .  A
C1495      C1504   1.406       .  A
C1495      C1496   1.404       .  A
C1496      C1497   1.400       .  A
C1496      H1507   1.084       .  S
C1497      C1498   1.404       .  A
C1497      H1508   1.083       .  S
C1498      C1499   1.406       .  A
C1499      C1500   1.410       .  A
C1499      H1509   1.084       .  S
C1500      C1501   1.411       .  A
C1501      H1510   1.084       .  S
C1502      C1503   1.410       .  A
C1502      H1511   1.084       .  S
C1503      C1504   1.409       .  A
C1504      H1512   1.084       .  S
C1513      C1514   1.405       .  A
C1513      C1518   1.406       .  A
C1513      H1529   1.083       .  S
C1514      C1515   1.406       .  A
C1514      H1530   1.083       .  S
C1515      C1525   1.414       .  A
C1515      C1516   1.412       .  A
C1516      C1522   1.411       .  A
C1516      C1517   1.419       .  A
C1517      C1519   1.411       .  A
C1517      C1518   1.412       .  A
C1518      C1526   1.413       .  A
C1519      C1528   1.405       .  A
C1519      C1520   1.404       .  A
C1520      C1521   1.399       .  A
C1520      H1531   1.084       .  S
C1521      C1522   1.404       .  A
C1521      H1532   1.084       .  S
C1522      C1523   1.406       .  A
C1523      C1524   1.410       .  A
C1523      H1533   1.084       .  S
C1524      C1525   1.412       .  A
C1525      H1534   1.084       .  S
C1526      C1527   1.411       .  A
C1526      H1535   1.084       .  S
C1527      C1528   1.409       .  A
C1528      H1536   1.084       .  S
C1537      C1538   1.404       .  A
C1537      C1542   1.405       .  A
C1537      H1553   1.083       .  S
C1538      C1539   1.406       .  A
C1538      H1554   1.083       .  S
C1539      C1549   1.412       .  A
C1539      C1540   1.412       .  A
C1540      C1546   1.411       .  A
C1540      C1541   1.417       .  A
C1541      C1543   1.411       .  A
C1541      C1542   1.412       .  A
C1542      C1550   1.412       .  A
C1543      C1552   1.405       .  A
C1543      C1544   1.404       .  A
C1544      C1545   1.399       .  A
C1544      H1555   1.084       .  S
C1545      C1546   1.403       .  A
C1545      H1556   1.084       .  S
C1546      C1547   1.403       .  A
C1547      C1548   1.408       .  A
C1547      H1557   1.084       .  S
C1548      C1549   1.411       .  A
C1549      H1558   1.084       .  S
C1550      C1551   1.410       .  A
C1550      H1559   1.084       .  S
C1551      C1552   1.410       .  A
C1552      H1560   1.084       .  S
C1561      C1562   1.399       .  A
C1561      C1566   1.404       .  A
C1561      H1577   1.084   1_655  S
C1562      C1563   1.404       .  A
C1562      H1578   1.084   1_655  S
C1563      C1573   1.403       .  A
C1563      C1564   1.412       .  A
C1564      C1570   1.411       .  A
C1564      C1565   1.410       .  A
C1565      C1567   1.411       .  A
C1565      C1566   1.412       .  A
C1566      C1574   1.404       .  A
C1567      C1576   1.399       .  A
C1567      C1568   1.403       .  A
C1568      C1569   1.397       .  A
C1568      H1579   1.084       .  S
C1569      C1570   1.403       .  A
C1569      H1580   1.084       .  S
C1570      C1571   1.400       .  A
C1571      C1572   1.406       .  A
C1571      H1581   1.084       .  S
C1572      C1573   1.406       .  A
C1573      H1582   1.084       .  S
C1574      C1575   1.406       .  A
C1574      H1583   1.084       .  S
C1575      C1576   1.406       .  A
C1576      H1584   1.084       .  S
C1585      C1586   1.404       .  A
C1585      C1590   1.405       .  A
C1585      H1601   1.083       .  S
C1586      C1587   1.406       .  A
C1586      H1602   1.083       .  S
C1587      C1597   1.412       .  A
C1587      C1588   1.412       .  A
C1588      C1594   1.411       .  A
C1588      C1589   1.415       .  A
C1589      C1591   1.410       .  A
C1589      C1590   1.413       .  A
C1590      C1598   1.412       .  A
C1591      C1600   1.398       .  A
C1591      C1592   1.402       .  A
C1592      C1593   1.396       .  A
C1592      H1603   1.084       .  S
C1593      C1594   1.403       .  A
C1593      H1604   1.084       .  S
C1594      C1595   1.400       .  A
C1595      C1596   1.407       .  A
C1595      H1605   1.084       .  S
C1596      C1597   1.409       .  A
C1597      H1606   1.084       .  S
C1598      C1599   1.408       .  A
C1598      H1607   1.084       .  S
C1599      C1600   1.405       .  A
C1600      H1608   1.085       .  S
C1609      C1610   1.396       .  A
C1609      C1614   1.402       .  A
C1609      H1625   1.084       .  S
C1610      C1611   1.402       .  A
C1610      H1626   1.084       .  S
C1611      C1621   1.398       .  A
C1611      C1612   1.411       .  A
C1612      C1618   1.412       .  A
C1612      C1613   1.412       .  A
C1613      C1615   1.412       .  A
C1613      C1614   1.411       .  A
C1614      C1622   1.399       .  A
C1615      C1624   1.409       .  A
C1615      C1616   1.405       .  A
C1616      C1617   1.402       .  A
C1616      H1627   1.083   1_455  S
C1617      C1618   1.405       .  A
C1617      H1628   1.084   1_455  S
C1618      C1619   1.407       .  A
C1619      C1620   1.408       .  A
C1619      H1629   1.084       .  S
C1620      C1621   1.405       .  A
C1621      H1630   1.084       .  S
C1622      C1623   1.405       .  A
C1622      H1631   1.084       .  S
C1623      C1624   1.409       .  A
C1624      H1632   1.084   1_455  S
C1633      C1634   1.404       .  A
C1633      C1638   1.406       .  A
C1633      H1649   1.083       .  S
C1634      C1635   1.405       .  A
C1634      H1650   1.083       .  S
C1635      C1645   1.412       .  A
C1635      C1636   1.413       .  A
C1636      C1642   1.411       .  A
C1636      C1637   1.416       .  A
C1637      C1639   1.411       .  A
C1637      C1638   1.412       .  A
C1638      C1646   1.413       .  A
C1639      C1648   1.402       .  A
C1639      C1640   1.403       .  A
C1640      C1641   1.397       .  A
C1640      H1651   1.084       .  S
C1641      C1642   1.402       .  A
C1641      H1652   1.084       .  S
C1642      C1643   1.400       .  A
C1643      C1644   1.406       .  A
C1643      H1653   1.085       .  S
C1644      C1645   1.409       .  A
C1645      H1654   1.084       .  S
C1646      C1647   1.410       .  A
C1646      H1655   1.084       .  S
C1647      C1648   1.406       .  A
C1648      H1656   1.085       .  S
C1657      C1658   1.394       .  A
C1657      C1662   1.401       .  A
C1657      H1673   1.084       .  S
C1658      C1659   1.402       .  A
C1658      H1674   1.084       .  S
C1659      C1669   1.395       .  A
C1659      C1660   1.411       .  A
C1660      C1666   1.412       .  A
C1660      C1661   1.408       .  A
C1661      C1663   1.412       .  A
C1661      C1662   1.411       .  A
C1662      C1670   1.395       .  A
C1663      C1672   1.403       .  A
C1663      C1664   1.404   1_554  A
C1664      C1665   1.400       .  A
C1664      H1675   1.084       .  S
C1665      C1666   1.404   1_556  A
C1665      H1676   1.084       .  S
C1666      C1667   1.403       .  A
C1667      C1668   1.406       .  A
C1667      H1677   1.084   1_554  S
C1668      C1669   1.403       .  A
C1669      H1678   1.085       .  S
C1670      C1671   1.403       .  A
C1670      H1679   1.085       .  S
C1671      C1672   1.406       .  A
C1672      H1680   1.084   1_554  S
C1681      C1682   1.397       .  A
C1681      C1686   1.403       .  A
C1681      H1697   1.084       .  S
C1682      C1683   1.403       .  A
C1682      H1698   1.084       .  S
C1683      C1693   1.400       .  A
C1683      C1684   1.410       .  A
C1684      C1690   1.413       .  A
C1684      C1685   1.416       .  A
C1685      C1687   1.412       .  A
C1685      C1686   1.411       .  A
C1686      C1694   1.400       .  A
C1687      C1696   1.413       .  A
C1687      C1688   1.406       .  A
C1688      C1689   1.405       .  A
C1688      H1699   1.083       .  S
C1689      C1690   1.406       .  A
C1689      H1700   1.083       .  S
C1690      C1691   1.414       .  A
C1691      C1692   1.409       .  A
C1691      H1701   1.084       .  S
C1692      C1693   1.409       .  A
C1693      H1702   1.085       .  S
C1694      C1695   1.407       .  A
C1694      H1703   1.084       .  S
C1695      C1696   1.411       .  A
C1696      H1704   1.084       .  S
C1705      C1706   1.393       .  A
C1705      C1710   1.401       .  A
C1705      H1721   1.084       .  S
C1706      C1707   1.401       .  A
C1706      H1722   1.084       .  S
C1707      C1717   1.391       .  A
C1707      C1708   1.410       .  A
C1708      C1714   1.412   1_556  A
C1708      C1709   1.406       .  A
C1709      C1711   1.411       .  A
C1709      C1710   1.411       .  A
C1710      C1718   1.393       .  A
C1711      C1720   1.402       .  A
C1711      C1712   1.404   1_556  A
C1712      C1713   1.399       .  A
C1712      H1723   1.084       .  S
C1713      C1714   1.403       .  A
C1713      H1724   1.084       .  S
C1714      C1715   1.403       .  A
C1715      C1716   1.405   1_554  A
C1715      H1725   1.084       .  S
C1716      C1717   1.403       .  A
C1717      H1726   1.084       .  S
C1718      C1719   1.403       .  A
C1718      H1727   1.084       .  S
C1719      C1720   1.406       .  A
C1720      H1728   1.084       .  S
C1729      C1730   1.403       .  A
C1729      C1734   1.405       .  A
C1729      H1745   1.083       .  S
C1730      C1731   1.405       .  A
C1730      H1746   1.083       .  S
C1731      C1741   1.410       .  A
C1731      C1732   1.412       .  A
C1732      C1738   1.410       .  A
C1732      C1733   1.415       .  A
C1733      C1735   1.411       .  A
C1733      C1734   1.412       .  A
C1734      C1742   1.411       .  A
C1735      C1744   1.402       .  A
C1735      C1736   1.403       .  A
C1736      C1737   1.397       .  A
C1736      H1747   1.084       .  S
C1737      C1738   1.403       .  A
C1737      H1748   1.084       .  S
C1738      C1739   1.401       .  A
C1739      C1740   1.407       .  A
C1739      H1749   1.084       .  S
C1740      C1741   1.409       .  A
C1741      H1750   1.084       .  S
C1742      C1743   1.410       .  A
C1742      H1751   1.084       .  S
C1743      C1744   1.408       .  A
C1744      H1752   1.084       .  S
C1753      C1754   1.402       .  A
C1753      C1758   1.405       .  A
C1753      H1769   1.083       .  S
C1754      C1755   1.405       .  A
C1754      H1770   1.083       .  S
C1755      C1765   1.410       .  A
C1755      C1756   1.412       .  A
C1756      C1762   1.411       .  A
C1756      C1757   1.416       .  A
C1757      C1759   1.412       .  A
C1757      C1758   1.412       .  A
C1758      C1766   1.408       .  A
C1759      C1768   1.406       .  A
C1759      C1760   1.404       .  A
C1760      C1761   1.400       .  A
C1760      H1771   1.084       .  S
C1761      C1762   1.404       .  A
C1761      H1772   1.084       .  S
C1762      C1763   1.405       .  A
C1763      C1764   1.408       .  A
C1763      H1773   1.084       .  S
C1764      C1765   1.410       .  A
C1765      H1774   1.084       .  S
C1766      C1767   1.409       .  A
C1766      H1775   1.084       .  S
C1767      C1768   1.409       .  A
C1768      H1776   1.084       .  S
C1777      C1778   1.403       .  A
C1777      C1782   1.406       .  A
C1777      H1793   1.083       .  S
C1778      C1779   1.405       .  A
C1778      H1794   1.084       .  S
C1779      C1789   1.410       .  A
C1779      C1780   1.411       .  A
C1780      C1786   1.412       .  A
C1780      C1781   1.418       .  A
C1781      C1783   1.412       .  A
C1781      C1782   1.411       .  A
C1782      C1790   1.410       .  A
C1783      C1792   1.409       .  A
C1783      C1784   1.404       .  A
C1784      C1785   1.401       .  A
C1784      H1795   1.083       .  S
C1785      C1786   1.404       .  A
C1785      H1796   1.083       .  S
C1786      C1787   1.408       .  A
C1787      C1788   1.408       .  A
C1787      H1797   1.084       .  S
C1788      C1789   1.412       .  A
C1789      H1798   1.084       .  S
C1790      C1791   1.412       .  A
C1790      H1799   1.084       .  S
C1791      C1792   1.409       .  A
C1792      H1800   1.084       .  S
C1801      C1802   1.398       .  A
C1801      C1806   1.403       .  A
C1801      H1817   1.084       .  S
C1802      C1803   1.403       .  A
C1802      H1818   1.084       .  S
C1803      C1813   1.402       .  A
C1803      C1804   1.411       .  A
C1804      C1810   1.412       .  A
C1804      C1805   1.416       .  A
C1805      C1807   1.413       .  A
C1805      C1806   1.410       .  A
C1806      C1814   1.401       .  A
C1807      C1816   1.412       .  A
C1807      C1808   1.405       .  A
C1808      C1809   1.404       .  A
C1808      H1819   1.083       .  S
C1809      C1810   1.406       .  A
C1809      H1820   1.083       .  S
C1810      C1811   1.413       .  A
C1811      C1812   1.411       .  A
C1811      H1821   1.084       .  S
C1812      C1813   1.408       .  A
C1813      H1822   1.084       .  S
C1814      C1815   1.409       .  A
C1814      H1823   1.084       .  S
C1815      C1816   1.409       .  A
C1816      H1824   1.084       .  S
C1825      C1826   1.397       .  A
C1825      C1830   1.403       .  A
C1825      H1841   1.084       .  S
C1826      C1827   1.403       .  A
C1826      H1842   1.084       .  S
C1827      C1837   1.400       .  A
C1827      C1828   1.410       .  A
C1828      C1834   1.412       .  A
C1828      C1829   1.414       .  A
C1829      C1831   1.412       .  A
C1829      C1830   1.410       .  A
C1830      C1838   1.400       .  A
C1831      C1840   1.410       .  A
C1831      C1832   1.405       .  A
C1832      C1833   1.403       .  A
C1832      H1843   1.083       .  S
C1833      C1834   1.405       .  A
C1833      H1844   1.083       .  S
C1834      C1835   1.411       .  A
C1835      C1836   1.410       .  A
C1835      H1845   1.084       .  S
C1836      C1837   1.407       .  A
C1837      H1846   1.084       .  S
C1838      C1839   1.407       .  A
C1838      H1847   1.084       .  S
C1839      C1840   1.409       .  A
C1840      H1848   1.084       .  S
C1849      C1850   1.399       .  A
C1849      C1854   1.403       .  A
C1849      H1865   1.084       .  S
C1850      C1851   1.404       .  A
C1850      H1866   1.084       .  S
C1851      C1861   1.403       .  A
C1851      C1852   1.411       .  A
C1852      C1858   1.412       .  A
C1852      C1853   1.415       .  A
C1853      C1855   1.411       .  A
C1853      C1854   1.411       .  A
C1854      C1862   1.404       .  A
C1855      C1864   1.407       .  A
C1855      C1856   1.404       .  A
C1856      C1857   1.401       .  A
C1856      H1867   1.083       .  S
C1857      C1858   1.405       .  A
C1857      H1868   1.083       .  S
C1858      C1859   1.409       .  A
C1859      C1860   1.409       .  A
C1859      H1869   1.084       .  S
C1860      C1861   1.408       .  A
C1861      H1870   1.084       .  S
C1862      C1863   1.408       .  A
C1862      H1871   1.084       .  S
C1863      C1864   1.408       .  A
C1864      H1872   1.084       .  S
C1873      C1874   1.399       .  A
C1873      C1878   1.403       .  A
C1873      H1889   1.084       .  S
C1874      C1875   1.403       .  A
C1874      H1890   1.084       .  S
C1875      C1885   1.403       .  A
C1875      C1876   1.411       .  A
C1876      C1882   1.412       .  A
C1876      C1877   1.414       .  A
C1877      C1879   1.411       .  A
C1877      C1878   1.412       .  A
C1878      C1886   1.404       .  A
C1879      C1888   1.406       .  A
C1879      C1880   1.404       .  A
C1880      C1881   1.401       .  A
C1880      H1891   1.084       .  S
C1881      C1882   1.404       .  A
C1881      H1892   1.083       .  S
C1882      C1883   1.408       .  A
C1883      C1884   1.408       .  A
C1883      H1893   1.084       .  S
C1884      C1885   1.407       .  A
C1885      H1894   1.084       .  S
C1886      C1887   1.407       .  A
C1886      H1895   1.084       .  S
C1887      C1888   1.408       .  A
C1888      H1896   1.084       .  S
C1897      C1898   1.408       .  A
C1897      C1902   1.407       .  A
C1897      H1913   1.083       .  S
C1898      C1899   1.407       .  A
C1898      H1914   1.083       .  S
C1899      C1909   1.416       .  A
C1899      C1900   1.411       .  A
C1900      C1906   1.412       .  A
C1900      C1901   1.419       .  A
C1901      C1903   1.408       .  A
C1901      C1902   1.414       .  A
C1902      C1910   1.421       .  A
C1903      C1912   1.398       .  A
C1903      C1904   1.403       .  A
C1904      C1905   1.395       .  A
C1904      H1915   1.084       .  S
C1905      C1906   1.402       .  A
C1905      H1916   1.084       .  S
C1906      C1907   1.401       .  A
C1907      C1908   1.407       .  A
C1907      H1917   1.084       .  S
C1908      C1909   1.413       .  A
C1909      H1918   1.084       .  S
C1910      C1911   1.414       .  A
C1910      H1919   1.083       .  S
C1911      C1912   1.409       .  A
C1912      H1920   1.084       .  S
C1921      C1922   1.405       .  A
C1921      C1926   1.406       .  A
C1921      H1937   1.083       .  S
C1922      C1923   1.406       .  A
C1922      H1938   1.083       .  S
C1923      C1933   1.414       .  A
C1923      C1924   1.412       .  A
C1924      C1930   1.411       .  A
C1924      C1925   1.417       .  A
C1925      C1927   1.411       .  A
C1925      C1926   1.412       .  A
C1926      C1934   1.413       .  A
C1927      C1936   1.402       .  A
C1927      C1928   1.403       .  A
C1928      C1929   1.398       .  A
C1928      H1939   1.084       .  S
C1929      C1930   1.403       .  A
C1929      H1940   1.084       .  S
C1930      C1931   1.403       .  A
C1931      C1932   1.408       .  A
C1931      H1941   1.084       .  S
C1932      C1933   1.413       .  A
C1933      H1942   1.084       .  S
C1934      C1935   1.411       .  A
C1934      H1943   1.084       .  S
C1935      C1936   1.408       .  A
C1936      H1944   1.084       .  S
C1945      C1946   1.401       .  A
C1945      C1950   1.404       .  A
C1945      H1961   1.083       .  S
C1946      C1947   1.405       .  A
C1946      H1962   1.084       .  S
C1947      C1957   1.407       .  A
C1947      C1948   1.411       .  A
C1948      C1954   1.412       .  A
C1948      C1949   1.417       .  A
C1949      C1951   1.411       .  A
C1949      C1950   1.412       .  A
C1950      C1958   1.408       .  A
C1951      C1960   1.407       .  A
C1951      C1952   1.404       .  A
C1952      C1953   1.402       .  A
C1952      H1963   1.084       .  S
C1953      C1954   1.405       .  A
C1953      H1964   1.083       .  S
C1954      C1955   1.410       .  A
C1955      C1956   1.410       .  A
C1955      H1965   1.084       .  S
C1956      C1957   1.410       .  A
C1957      H1966   1.084       .  S
C1958      C1959   1.410       .  A
C1958      H1967   1.084       .  S
C1959      C1960   1.408       .  A
C1960      H1968   1.084       .  S
C1969      C1970   1.404       .  A
C1969      C1974   1.405       .  A
C1969      H1985   1.083       .  S
C1970      C1971   1.406       .  A
C1970      H1986   1.083       .  S
C1971      C1981   1.412       .  A
C1971      C1972   1.412       .  A
C1972      C1978   1.411       .  A
C1972      C1973   1.417       .  A
C1973      C1975   1.410       .  A
C1973      C1974   1.413       .  A
C1974      C1982   1.413       .  A
C1975      C1984   1.402       .  A
C1975      C1976   1.404       .  A
C1976      C1977   1.398       .  A
C1976      H1987   1.084       .  S
C1977      C1978   1.404       .  A
C1977      H1988   1.084       .  S
C1978      C1979   1.404       .  A
C1979      C1980   1.409       .  A
C1979      H1989   1.084       .  S
C1980      C1981   1.410       .  A
C1981      H1990   1.084       .  S
C1982      C1983   1.409       .  A
C1982      H1991   1.084       .  S
C1983      C1984   1.409       .  A
C1984      H1992   1.084       .  S
C1993      C1994   1.396       .  A
C1993      C1998   1.402       .  A
C1993      H2009   1.083       .  S
C1994      C1995   1.402       .  A
C1994      H2010   1.084       .  S
C1995      C2005   1.398       .  A
C1995      C1996   1.410       .  A
C1996      C2002   1.412       .  A
C1996      C1997   1.410       .  A
C1997      C1999   1.411       .  A
C1997      C1998   1.411       .  A
C1998      C2006   1.399       .  A
C1999      C2008   1.402       .  A
C1999      C2000   1.403   1_545  A
C2000      C2001   1.398   1_565  A
C2000      H2011   1.083       .  S
C2001      C2002   1.402       .  A
C2001      H2012   1.083   1_545  S
C2002      C2003   1.404       .  A
C2003      C2004   1.406       .  A
C2003      H2013   1.084       .  S
C2004      C2005   1.406       .  A
C2005      H2014   1.084       .  S
C2006      C2007   1.406       .  A
C2006      H2015   1.084       .  S
C2007      C2008   1.406       .  A
C2008      H2016   1.084   1_545  S
C2017      C2018   1.397       .  A
C2017      C2022   1.403       .  A
C2017      H2033   1.084       .  S
C2018      C2019   1.403       .  A
C2018      H2034   1.084       .  S
C2019      C2029   1.401       .  A
C2019      C2020   1.411       .  A
C2020      C2026   1.412       .  A
C2020      C2021   1.414       .  A
C2021      C2023   1.412       .  A
C2021      C2022   1.411       .  A
C2022      C2030   1.402       .  A
C2023      C2032   1.409       .  A
C2023      C2024   1.405       .  A
C2024      C2025   1.402       .  A
C2024      H2035   1.083       .  S
C2025      C2026   1.405       .  A
C2025      H2036   1.083       .  S
C2026      C2027   1.408       .  A
C2027      C2028   1.407       .  A
C2027      H2037   1.084       .  S
C2028      C2029   1.407       .  A
C2029      H2038   1.084       .  S
C2030      C2031   1.406       .  A
C2030      H2039   1.084       .  S
C2031      C2032   1.408       .  A
C2032      H2040   1.084       .  S
C2041      C2042   1.398       .  A
C2041      C2046   1.403       .  A
C2041      H2057   1.083   1_565  S
C2042      C2043   1.402       .  A
C2042      H2058   1.084   1_565  S
C2043      C2053   1.401       .  A
C2043      C2044   1.412       .  A
C2044      C2050   1.411       .  A
C2044      C2045   1.410       .  A
C2045      C2047   1.411       .  A
C2045      C2046   1.411       .  A
C2046      C2054   1.402       .  A
C2047      C2056   1.402       .  A
C2047      C2048   1.404       .  A
C2048      C2049   1.398       .  A
C2048      H2059   1.084       .  S
C2049      C2050   1.403       .  A
C2049      H2060   1.084       .  S
C2050      C2051   1.401       .  A
C2051      C2052   1.407       .  A
C2051      H2061   1.084       .  S
C2052      C2053   1.404       .  A
C2053      H2062   1.084       .  S
C2054      C2055   1.406       .  A
C2054      H2063   1.084       .  S
C2055      C2056   1.407       .  A
C2056      H2064   1.084       .  S
C2065      C2066   1.404       .  A
C2065      C2070   1.404       .  A
C2065      H2081   1.083       .  S
C2066      C2067   1.406       .  A
C2066      H2082   1.083       .  S
C2067      C2077   1.412       .  A
C2067      C2068   1.412       .  A
C2068      C2074   1.411       .  A
C2068      C2069   1.415       .  A
C2069      C2071   1.410       .  A
C2069      C2070   1.414       .  A
C2070      C2078   1.411       .  A
C2071      C2080   1.398       .  A
C2071      C2072   1.403       .  A
C2072      C2073   1.397       .  A
C2072      H2083   1.084       .  S
C2073      C2074   1.403       .  A
C2073      H2084   1.084       .  S
C2074      C2075   1.402       .  A
C2075      C2076   1.408       .  A
C2075      H2085   1.084       .  S
C2076      C2077   1.411       .  A
C2077      H2086   1.084       .  S
C2078      C2079   1.407       .  A
C2078      H2087   1.084       .  S
C2079      C2080   1.407       .  A
C2080      H2088   1.085       .  S
C2089      C2090   1.399       .  A
C2089      C2094   1.404       .  A
C2089      H2105   1.084       .  S
C2090      C2091   1.404       .  A
C2090      H2106   1.083       .  S
C2091      C2101   1.404       .  A
C2091      C2092   1.412       .  A
C2092      C2098   1.411       .  A
C2092      C2093   1.408       .  A
C2093      C2095   1.411       .  A
C2093      C2094   1.411       .  A
C2094      C2102   1.402       .  A
C2095      C2104   1.397       .  A
C2095      C2096   1.402       .  A
C2096      C2097   1.395       .  A
C2096      H2107   1.084       .  S
C2097      C2098   1.402       .  A
C2097      H2108   1.084       .  S
C2098      C2099   1.396       .  A
C2099      C2100   1.404       .  A
C2099      H2109   1.084       .  S
C2100      C2101   1.406       .  A
C2101      H2110   1.084       .  S
C2102      C2103   1.406       .  A
C2102      H2111   1.084       .  S
C2103      C2104   1.404       .  A
C2104      H2112   1.084       .  S
C2113      C2114   1.405       .  A
C2113      C2118   1.406       .  A
C2113      H2129   1.083       .  S
C2114      C2115   1.406       .  A
C2114      H2130   1.083       .  S
C2115      C2125   1.414       .  A
C2115      C2116   1.413       .  A
C2116      C2122   1.410       .  A
C2116      C2117   1.415       .  A
C2117      C2119   1.411       .  A
C2117      C2118   1.412       .  A
C2118      C2126   1.413       .  A
C2119      C2128   1.398       .  A
C2119      C2120   1.402       .  A
C2120      C2121   1.395       .  A
C2120      H2131   1.084       .  S
C2121      C2122   1.402       .  A
C2121      H2132   1.084       .  S
C2122      C2123   1.398       .  A
C2123      C2124   1.408       .  A
C2123      H2133   1.084       .  S
C2124      C2125   1.410       .  A
C2125      H2134   1.084       .  S
C2126      C2127   1.410       .  A
C2126      H2135   1.084       .  S
C2127      C2128   1.405       .  A
C2128      H2136   1.085       .  S
C2137      C2138   1.400       .  A
C2137      C2142   1.404       .  A
C2137      H2153   1.084       .  S
C2138      C2139   1.404       .  A
C2138      H2154   1.083   1_554  S
C2139      C2149   1.404   1_554  A
C2139      C2140   1.412       .  A
C2140      C2146   1.410       .  A
C2140      C2141   1.409       .  A
C2141      C2143   1.411       .  A
C2141      C2142   1.412       .  A
C2142      C2150   1.404       .  A
C2143      C2152   1.397       .  A
C2143      C2144   1.402       .  A
C2144      C2145   1.395       .  A
C2144      H2155   1.084       .  S
C2145      C2146   1.402       .  A
C2145      H2156   1.084       .  S
C2146      C2147   1.396       .  A
C2147      C2148   1.405   1_554  A
C2147      H2157   1.084       .  S
C2148      C2149   1.407       .  A
C2149      H2158   1.084       .  S
C2150      C2151   1.407       .  A
C2150      H2159   1.084       .  S
C2151      C2152   1.405       .  A
C2152      H2160   1.084       .  S
C2161      C2162   1.400       .  A
C2161      C2166   1.404       .  A
C2161      H2177   1.083       .  S
C2162      C2163   1.404       .  A
C2162      H2178   1.084       .  S
C2163      C2173   1.405       .  A
C2163      C2164   1.411       .  A
C2164      C2170   1.413       .  A
C2164      C2165   1.415       .  A
C2165      C2167   1.410       .  A
C2165      C2166   1.413       .  A
C2166      C2174   1.408       .  A
C2167      C2176   1.404       .  A
C2167      C2168   1.404       .  A
C2168      C2169   1.400       .  A
C2168      H2179   1.084       .  S
C2169      C2170   1.404       .  A
C2169      H2180   1.084       .  S
C2170      C2171   1.407       .  A
C2171      C2172   1.408       .  A
C2171      H2181   1.084       .  S
C2172      C2173   1.408       .  A
C2173      H2182   1.084       .  S
C2174      C2175   1.407       .  A
C2174      H2183   1.084       .  S
C2175      C2176   1.409       .  A
C2176      H2184   1.084       .  S
C2185      C2186   1.400       .  A
C2185      C2190   1.404       .  A
C2185      H2201   1.084       .  S
C2186      C2187   1.404       .  A
C2186      H2202   1.083       .  S
C2187      C2197   1.406       .  A
C2187      C2188   1.412       .  A
C2188      C2194   1.411       .  A
C2188      C2189   1.415       .  A
C2189      C2191   1.412       .  A
C2189      C2190   1.411       .  A
C2190      C2198   1.404       .  A
C2191      C2200   1.408       .  A
C2191      C2192   1.404       .  A
C2192      C2193   1.401       .  A
C2192      H2203   1.083       .  S
C2193      C2194   1.404       .  A
C2193      H2204   1.083       .  S
C2194      C2195   1.406       .  A
C2195      C2196   1.408       .  A
C2195      H2205   1.084       .  S
C2196      C2197   1.410       .  A
C2197      H2206   1.084       .  S
C2198      C2199   1.409       .  A
C2198      H2207   1.084       .  S
C2199      C2200   1.408       .  A
C2200      H2208   1.084       .  S
C2209      C2210   1.397       .  A
C2209      C2214   1.403       .  A
C2209      H2225   1.084       .  S
C2210      C2211   1.402       .  A
C2210      H2226   1.084       .  S
C2211      C2221   1.401       .  A
C2211      C2212   1.412       .  A
C2212      C2218   1.412       .  A
C2212      C2213   1.415       .  A
C2213      C2215   1.413       .  A
C2213      C2214   1.410       .  A
C2214      C2222   1.400       .  A
C2215      C2224   1.413       .  A
C2215      C2216   1.406       .  A
C2216      C2217   1.404       .  A
C2216      H2227   1.083       .  S
C2217      C2218   1.406       .  A
C2217      H2228   1.083       .  S
C2218      C2219   1.411       .  A
C2219      C2220   1.409       .  A
C2219      H2229   1.084       .  S
C2220      C2221   1.405       .  A
C2221      H2230   1.085       .  S
C2222      C2223   1.408       .  A
C2222      H2231   1.084       .  S
C2223      C2224   1.410       .  A
C2224      H2232   1.084       .  S
C2233      C2234   1.397       .  A
C2233      C2238   1.403       .  A
C2233      H2249   1.084       .  S
C2234      C2235   1.403       .  A
C2234      H2250   1.084       .  S
C2235      C2245   1.400       .  A
C2235      C2236   1.410       .  A
C2236      C2242   1.412       .  A
C2236      C2237   1.415       .  A
C2237      C2239   1.412       .  A
C2237      C2238   1.411       .  A
C2238      C2246   1.401       .  A
C2239      C2248   1.410       .  A
C2239      C2240   1.405       .  A
C2240      C2241   1.403       .  A
C2240      H2251   1.083       .  S
C2241      C2242   1.405       .  A
C2241      H2252   1.083       .  S
C2242      C2243   1.411       .  A
C2243      C2244   1.410       .  A
C2243      H2253   1.084       .  S
C2244      C2245   1.407       .  A
C2245      H2254   1.084       .  S
C2246      C2247   1.406       .  A
C2246      H2255   1.084       .  S
C2247      C2248   1.409       .  A
C2248      H2256   1.084       .  S
C2257      C2258   1.400       .  A
C2257      C2262   1.404       .  A
C2257      H2273   1.084       .  S
C2258      C2259   1.404       .  A
C2258      H2274   1.084       .  S
C2259      C2269   1.404       .  A
C2259      C2260   1.411       .  A
C2260      C2266   1.412       .  A
C2260      C2261   1.415       .  A
C2261      C2263   1.411       .  A
C2261      C2262   1.412       .  A
C2262      C2270   1.405       .  A
C2263      C2272   1.407       .  A
C2263      C2264   1.404       .  A
C2264      C2265   1.401       .  A
C2264      H2275   1.083       .  S
C2265      C2266   1.405       .  A
C2265      H2276   1.083       .  S
C2266      C2267   1.408       .  A
C2267      C2268   1.409       .  A
C2267      H2277   1.084       .  S
C2268      C2269   1.409       .  A
C2269      H2278   1.084       .  S
C2270      C2271   1.408       .  A
C2270      H2279   1.084       .  S
C2271      C2272   1.408       .  A
C2272      H2280   1.084       .  S
C2281      C2282   1.398       .  A
C2281      C2286   1.403       .  A
C2281      H2297   1.084       .  S
C2282      C2283   1.403       .  A
C2282      H2298   1.084       .  S
C2283      C2293   1.404       .  A
C2283      C2284   1.412       .  A
C2284      C2290   1.411       .  A
C2284      C2285   1.415       .  A
C2285      C2287   1.413       .  A
C2285      C2286   1.410       .  A
C2286      C2294   1.402       .  A
C2287      C2296   1.410       .  A
C2287      C2288   1.405       .  A
C2288      C2289   1.402       .  A
C2288      H2299   1.083       .  S
C2289      C2290   1.405       .  A
C2289      H2300   1.083       .  S
C2290      C2291   1.409       .  A
C2291      C2292   1.409       .  A
C2291      H2301   1.084       .  S
C2292      C2293   1.407       .  A
C2293      H2302   1.084       .  S
C2294      C2295   1.408       .  A
C2294      H2303   1.084       .  S
C2295      C2296   1.408       .  A
C2296      H2304   1.084       .  S
C2305      C2306   1.396       .  A
C2305      C2310   1.403       .  A
C2305      H2321   1.084       .  S
C2306      C2307   1.402       .  A
C2306      H2322   1.084       .  S
C2307      C2317   1.400       .  A
C2307      C2308   1.410       .  A
C2308      C2314   1.412       .  A
C2308      C2309   1.417       .  A
C2309      C2311   1.412       .  A
C2309      C2310   1.411       .  A
C2310      C2318   1.401       .  A
C2311      C2320   1.415       .  A
C2311      C2312   1.407       .  A
C2312      C2313   1.406       .  A
C2312      H2323   1.083       .  S
C2313      C2314   1.406       .  A
C2313      H2324   1.083       .  S
C2314      C2315   1.414       .  A
C2315      C2316   1.412       .  A
C2315      H2325   1.084       .  S
C2316      C2317   1.407       .  A
C2317      H2326   1.084       .  S
C2318      C2319   1.408       .  A
C2318      H2327   1.084       .  S
C2319      C2320   1.412       .  A
C2320      H2328   1.084       .  S
C2329      C2330   1.403       .  A
C2329      C2334   1.405       .  A
C2329      H2345   1.083       .  S
C2330      C2331   1.405       .  A
C2330      H2346   1.083       .  S
C2331      C2341   1.411       .  A
C2331      C2332   1.412       .  A
C2332      C2338   1.411       .  A
C2332      C2333   1.416       .  A
C2333      C2335   1.412       .  A
C2333      C2334   1.411       .  A
C2334      C2342   1.409       .  A
C2335      C2344   1.405       .  A
C2335      C2336   1.403       .  A
C2336      C2337   1.399       .  A
C2336      H2347   1.084       .  S
C2337      C2338   1.404       .  A
C2337      H2348   1.084       .  S
C2338      C2339   1.404       .  A
C2339      C2340   1.408       .  A
C2339      H2349   1.084       .  S
C2340      C2341   1.410       .  A
C2341      H2350   1.084       .  S
C2342      C2343   1.410       .  A
C2342      H2351   1.084       .  S
C2343      C2344   1.408       .  A
C2344      H2352   1.084       .  S
C2353      C2354   1.397       .  A
C2353      C2358   1.403       .  A
C2353      H2369   1.084       .  S
C2354      C2355   1.403       .  A
C2354      H2370   1.084       .  S
C2355      C2365   1.401       .  A
C2355      C2356   1.411       .  A
C2356      C2362   1.412       .  A
C2356      C2357   1.414       .  A
C2357      C2359   1.412       .  A
C2357      C2358   1.411       .  A
C2358      C2366   1.400       .  A
C2359      C2368   1.409       .  A
C2359      C2360   1.405       .  A
C2360      C2361   1.403       .  A
C2360      H2371   1.083       .  S
C2361      C2362   1.405       .  A
C2361      H2372   1.083       .  S
C2362      C2363   1.410       .  A
C2363      C2364   1.409       .  A
C2363      H2373   1.084       .  S
C2364      C2365   1.408       .  A
C2365      H2374   1.084       .  S
C2366      C2367   1.407       .  A
C2366      H2375   1.084       .  S
C2367      C2368   1.408       .  A
C2368      H2376   1.084       .  S
C2377      C2378   1.401       .  A
C2377      C2382   1.404       .  A
C2377      H2393   1.083       .  S
C2378      C2379   1.404       .  A
C2378      H2394   1.083       .  S
C2379      C2389   1.407       .  A
C2379      C2380   1.412       .  A
C2380      C2386   1.411       .  A
C2380      C2381   1.417       .  A
C2381      C2383   1.412       .  A
C2381      C2382   1.411       .  A
C2382      C2390   1.407       .  A
C2383      C2392   1.409       .  A
C2383      C2384   1.405       .  A
C2384      C2385   1.402       .  A
C2384      H2395   1.083       .  S
C2385      C2386   1.405       .  A
C2385      H2396   1.084       .  S
C2386      C2387   1.408       .  A
C2387      C2388   1.410       .  A
C2387      H2397   1.084       .  S
C2388      C2389   1.408       .  A
C2389      H2398   1.084       .  S
C2390      C2391   1.409       .  A
C2390      H2399   1.084       .  S
C2391      C2392   1.411       .  A
C2392      H2400   1.084       .  S
C2401      C2402   1.396       .  A
C2401      C2406   1.403       .  A
C2401      H2417   1.084       .  S
C2402      C2403   1.402       .  A
C2402      H2418   1.084       .  S
C2403      C2413   1.398       .  A
C2403      C2404   1.411       .  A
C2404      C2410   1.412       .  A
C2404      C2405   1.412       .  A
C2405      C2407   1.413       .  A
C2405      C2406   1.411       .  A
C2406      C2414   1.398       .  A
C2407      C2416   1.408       .  A
C2407      C2408   1.405       .  A
C2408      C2409   1.402       .  A
C2408      H2419   1.083       .  S
C2409      C2410   1.405       .  A
C2409      H2420   1.083       .  S
C2410      C2411   1.408       .  A
C2411      C2412   1.408       .  A
C2411      H2421   1.084       .  S
C2412      C2413   1.404       .  A
C2413      H2422   1.085       .  S
C2414      C2415   1.405       .  A
C2414      H2423   1.085       .  S
C2415      C2416   1.407       .  A
C2416      H2424   1.084       .  S
C2425      C2426   1.396       .  A
C2425      C2430   1.403       .  A
C2425      H2441   1.084       .  S
C2426      C2427   1.402       .  A
C2426      H2442   1.084       .  S
C2427      C2437   1.401       .  A
C2427      C2428   1.411       .  A
C2428      C2434   1.412       .  A
C2428      C2429   1.415       .  A
C2429      C2431   1.412       .  A
C2429      C2430   1.410       .  A
C2430      C2438   1.400       .  A
C2431      C2440   1.412       .  A
C2431      C2432   1.406       .  A
C2432      C2433   1.404       .  A
C2432      H2443   1.083       .  S
C2433      C2434   1.406       .  A
C2433      H2444   1.083       .  S
C2434      C2435   1.412       .  A
C2435      C2436   1.411       .  A
C2435      H2445   1.084       .  S
C2436      C2437   1.407       .  A
C2437      H2446   1.084       .  S
C2438      C2439   1.407       .  A
C2438      H2447   1.084       .  S
C2439      C2440   1.410       .  A
C2440      H2448   1.084       .  S
C2449      C2450   1.397       .  A
C2449      C2454   1.402       .  A
C2449      H2465   1.084       .  S
C2450      C2451   1.403       .  A
C2450      H2466   1.084       .  S
C2451      C2461   1.401       .  A
C2451      C2452   1.411       .  A
C2452      C2458   1.412       .  A
C2452      C2453   1.414       .  A
C2453      C2455   1.412       .  A
C2453      C2454   1.411       .  A
C2454      C2462   1.400       .  A
C2455      C2464   1.409       .  A
C2455      C2456   1.405       .  A
C2456      C2457   1.403       .  A
C2456      H2467   1.083       .  S
C2457      C2458   1.405       .  A
C2457      H2468   1.083       .  S
C2458      C2459   1.410       .  A
C2459      C2460   1.410       .  A
C2459      H2469   1.084       .  S
C2460      C2461   1.407       .  A
C2461      H2470   1.084       .  S
C2462      C2463   1.406       .  A
C2462      H2471   1.084       .  S
C2463      C2464   1.409       .  A
C2464      H2472   1.084       .  S
C2473      C2474   1.402       .  A
C2473      C2478   1.405       .  A
C2473      H2489   1.083       .  S
C2474      C2475   1.404       .  A
C2474      H2490   1.083       .  S
C2475      C2485   1.409       .  A
C2475      C2476   1.412       .  A
C2476      C2482   1.411       .  A
C2476      C2477   1.418       .  A
C2477      C2479   1.412       .  A
C2477      C2478   1.411       .  A
C2478      C2486   1.409       .  A
C2479      C2488   1.409       .  A
C2479      C2480   1.405       .  A
C2480      C2481   1.402       .  A
C2480      H2491   1.083       .  S
C2481      C2482   1.405       .  A
C2481      H2492   1.084       .  S
C2482      C2483   1.408       .  A
C2483      C2484   1.410       .  A
C2483      H2493   1.084       .  S
C2484      C2485   1.409       .  A
C2485      H2494   1.084       .  S
C2486      C2487   1.410       .  A
C2486      H2495   1.084       .  S
C2487      C2488   1.411       .  A
C2488      H2496   1.084       .  S
C2497      C2498   1.399       .  A
C2497      C2502   1.403       .  A
C2497      H2513   1.084       .  S
C2498      C2499   1.404       .  A
C2498      H2514   1.083       .  S
C2499      C2509   1.404       .  A
C2499      C2500   1.412       .  A
C2500      C2506   1.411       .  A
C2500      C2501   1.410       .  A
C2501      C2503   1.411       .  A
C2501      C2502   1.411       .  A
C2502      C2510   1.403       .  A
C2503      C2512   1.399       .  A
C2503      C2504   1.403       .  A
C2504      C2505   1.397       .  A
C2504      H2515   1.084       .  S
C2505      C2506   1.403       .  A
C2505      H2516   1.084       .  S
C2506      C2507   1.399       .  A
C2507      C2508   1.406       .  A
C2507      H2517   1.084       .  S
C2508      C2509   1.406       .  A
C2509      H2518   1.084       .  S
C2510      C2511   1.406       .  A
C2510      H2519   1.084       .  S
C2511      C2512   1.406       .  A
C2512      H2520   1.084       .  S
C2521      C2522   1.398       .  A
C2521      C2526   1.403       .  A
C2521      H2537   1.084       .  S
C2522      C2523   1.403       .  A
C2522      H2538   1.084       .  S
C2523      C2533   1.401       .  A
C2523      C2524   1.410       .  A
C2524      C2530   1.413       .  A
C2524      C2525   1.417       .  A
C2525      C2527   1.411       .  A
C2525      C2526   1.412       .  A
C2526      C2534   1.404       .  A
C2527      C2536   1.411       .  A
C2527      C2528   1.406       .  A
C2528      C2529   1.404       .  A
C2528      H2539   1.083       .  S
C2529      C2530   1.405       .  A
C2529      H2540   1.083       .  S
C2530      C2531   1.414       .  A
C2531      C2532   1.410       .  A
C2531      H2541   1.084       .  S
C2532      C2533   1.408       .  A
C2533      H2542   1.085       .  S
C2534      C2535   1.407       .  A
C2534      H2543   1.084       .  S
C2535      C2536   1.410       .  A
C2536      H2544   1.084       .  S
C2545      C2546   1.400       .  A
C2545      C2550   1.404       .  A
C2545      H2561   1.083       .  S
C2546      C2547   1.404       .  A
C2546      H2562   1.083       .  S
C2547      C2557   1.405       .  A
C2547      C2548   1.412       .  A
C2548      C2554   1.411       .  A
C2548      C2549   1.411       .  A
C2549      C2551   1.410       .  A
C2549      C2550   1.412       .  A
C2550      C2558   1.406       .  A
C2551      C2560   1.397       .  A
C2551      C2552   1.402       .  A
C2552      C2553   1.396       .  A
C2552      H2563   1.084       .  S
C2553      C2554   1.403       .  A
C2553      H2564   1.084       .  S
C2554      C2555   1.400       .  A
C2555      C2556   1.406       .  A
C2555      H2565   1.084       .  S
C2556      C2557   1.407       .  A
C2557      H2566   1.084       .  S
C2558      C2559   1.407       .  A
C2558      H2567   1.084       .  S
C2559      C2560   1.405       .  A
C2560      H2568   1.084       .  S
C2569      C2570   1.404       .  A
C2569      C2574   1.405       .  A
C2569      H2585   1.083       .  S
C2570      C2571   1.406       .  A
C2570      H2586   1.083       .  S
C2571      C2581   1.411       .  A
C2571      C2572   1.412       .  A
C2572      C2578   1.411       .  A
C2572      C2573   1.414       .  A
C2573      C2575   1.410       .  A
C2573      C2574   1.413       .  A
C2574      C2582   1.411       .  A
C2575      C2584   1.398       .  A
C2575      C2576   1.402       .  A
C2576      C2577   1.396       .  A
C2576      H2587   1.084       .  S
C2577      C2578   1.402       .  A
C2577      H2588   1.084       .  S
C2578      C2579   1.400       .  A
C2579      C2580   1.406       .  A
C2579      H2589   1.084       .  S
C2580      C2581   1.410       .  A
C2581      H2590   1.084       .  S
C2582      C2583   1.408       .  A
C2582      H2591   1.084       .  S
C2583      C2584   1.407       .  A
C2584      H2592   1.085       .  S
C2593      C2594   1.398       .  A
C2593      C2598   1.403       .  A
C2593      H2609   1.084       .  S
C2594      C2595   1.403       .  A
C2594      H2610   1.084       .  S
C2595      C2605   1.402       .  A
C2595      C2596   1.411       .  A
C2596      C2602   1.412       .  A
C2596      C2597   1.412       .  A
C2597      C2599   1.412       .  A
C2597      C2598   1.411       .  A
C2598      C2606   1.401       .  A
C2599      C2608   1.404       .  A
C2599      C2600   1.403   1_556  A
C2600      C2601   1.399       .  A
C2600      H2611   1.084       .  S
C2601      C2602   1.404   1_554  A
C2601      H2612   1.084       .  S
C2602      C2603   1.404       .  A
C2603      C2604   1.407       .  A
C2603      H2613   1.084   1_556  S
C2604      C2605   1.407       .  A
C2605      H2614   1.084       .  S
C2606      C2607   1.407       .  A
C2606      H2615   1.084       .  S
C2607      C2608   1.406       .  A
C2608      H2616   1.084   1_556  S
C2617      C2618   1.403       .  A
C2617      C2622   1.405       .  A
C2617      H2633   1.083       .  S
C2618      C2619   1.405       .  A
C2618      H2634   1.083       .  S
C2619      C2629   1.410       .  A
C2619      C2620   1.412       .  A
C2620      C2626   1.411       .  A
C2620      C2621   1.417       .  A
C2621      C2623   1.411       .  A
C2621      C2622   1.412       .  A
C2622      C2630   1.411       .  A
C2623      C2632   1.405       .  A
C2623      C2624   1.404       .  A
C2624      C2625   1.400       .  A
C2624      H2635   1.084       .  S
C2625      C2626   1.404       .  A
C2625      H2636   1.084       .  S
C2626      C2627   1.406       .  A
C2627      C2628   1.409       .  A
C2627      H2637   1.084       .  S
C2628      C2629   1.410       .  A
C2629      H2638   1.084       .  S
C2630      C2631   1.410       .  A
C2630      H2639   1.084       .  S
C2631      C2632   1.409       .  A
C2632      H2640   1.084       .  S
C2641      C2642   1.400       .  A
C2641      C2646   1.404       .  A
C2641      H2657   1.083       .  S
C2642      C2643   1.404       .  A
C2642      H2658   1.083       .  S
C2643      C2653   1.407       .  A
C2643      C2644   1.411       .  A
C2644      C2650   1.411       .  A
C2644      C2645   1.417       .  A
C2645      C2647   1.411       .  A
C2645      C2646   1.412       .  A
C2646      C2654   1.407       .  A
C2647      C2656   1.408       .  A
C2647      C2648   1.405       .  A
C2648      C2649   1.402       .  A
C2648      H2659   1.084       .  S
C2649      C2650   1.405       .  A
C2649      H2660   1.083       .  S
C2650      C2651   1.409       .  A
C2651      C2652   1.411       .  A
C2651      H2661   1.084       .  S
C2652      C2653   1.408       .  A
C2653      H2662   1.084       .  S
C2654      C2655   1.409       .  A
C2654      H2663   1.084       .  S
C2655      C2656   1.410       .  A
C2656      H2664   1.084       .  S
C2665      C2666   1.399       .  A
C2665      C2670   1.404       .  A
C2665      H2681   1.083       .  S
C2666      C2667   1.404       .  A
C2666      H2682   1.084       .  S
C2667      C2677   1.404       .  A
C2667      C2668   1.411       .  A
C2668      C2674   1.412       .  A
C2668      C2669   1.416       .  A
C2669      C2671   1.411       .  A
C2669      C2670   1.412       .  A
C2670      C2678   1.406       .  A
C2671      C2680   1.408       .  A
C2671      C2672   1.405       .  A
C2672      C2673   1.402       .  A
C2672      H2683   1.083       .  S
C2673      C2674   1.405       .  A
C2673      H2684   1.083       .  S
C2674      C2675   1.409       .  A
C2675      C2676   1.410       .  A
C2675      H2685   1.084       .  S
C2676      C2677   1.408       .  A
C2677      H2686   1.084       .  S
C2678      C2679   1.408       .  A
C2678      H2687   1.084       .  S
C2679      C2680   1.409       .  A
C2680      H2688   1.084       .  S
C2689      C2690   1.395       .  A
C2689      C2694   1.403       .  A
C2689      H2705   1.084       .  S
C2690      C2691   1.402       .  A
C2690      H2706   1.084       .  S
C2691      C2701   1.398       .  A
C2691      C2692   1.410       .  A
C2692      C2698   1.412       .  A
C2692      C2693   1.417       .  A
C2693      C2695   1.413       .  A
C2693      C2694   1.410       .  A
C2694      C2702   1.399       .  A
C2695      C2704   1.417       .  A
C2695      C2696   1.407       .  A
C2696      C2697   1.407       .  A
C2696      H2707   1.083       .  S
C2697      C2698   1.407       .  A
C2697      H2708   1.083       .  S
C2698      C2699   1.416       .  A
C2699      C2700   1.412       .  A
C2699      H2709   1.084       .  S
C2700      C2701   1.406       .  A
C2701      H2710   1.084       .  S
C2702      C2703   1.408       .  A
C2702      H2711   1.084       .  S
C2703      C2704   1.412       .  A
C2704      H2712   1.084       .  S
C2713      C2714   1.401       .  A
C2713      C2718   1.404       .  A
C2713      H2729   1.084       .  S
C2714      C2715   1.405       .  A
C2714      H2730   1.084       .  S
C2715      C2725   1.406       .  A
C2715      C2716   1.411       .  A
C2716      C2722   1.412       .  A
C2716      C2717   1.418       .  A
C2717      C2719   1.412       .  A
C2717      C2718   1.412       .  A
C2718      C2726   1.408       .  A
C2719      C2728   1.409       .  A
C2719      C2720   1.405       .  A
C2720      C2721   1.402       .  A
C2720      H2731   1.083       .  S
C2721      C2722   1.405       .  A
C2721      H2732   1.083       .  S
C2722      C2723   1.411       .  A
C2723      C2724   1.410       .  A
C2723      H2733   1.084       .  S
C2724      C2725   1.410       .  A
C2725      H2734   1.084       .  S
C2726      C2727   1.410       .  A
C2726      H2735   1.084       .  S
C2727      C2728   1.408       .  A
C2728      H2736   1.084       .  S
C2737      C2738   1.403       .  A
C2737      C2742   1.405       .  A
C2737      H2753   1.083       .  S
C2738      C2739   1.405       .  A
C2738      H2754   1.083       .  S
C2739      C2749   1.409       .  A
C2739      C2740   1.411       .  A
C2740      C2746   1.411       .  A
C2740      C2741   1.416       .  A
C2741      C2743   1.411       .  A
C2741      C2742   1.412       .  A
C2742      C2750   1.410       .  A
C2743      C2752   1.404       .  A
C2743      C2744   1.404       .  A
C2744      C2745   1.399       .  A
C2744      H2755   1.084       .  S
C2745      C2746   1.404       .  A
C2745      H2756   1.084       .  S
C2746      C2747   1.405       .  A
C2747      C2748   1.408       .  A
C2747      H2757   1.084       .  S
C2748      C2749   1.410       .  A
C2749      H2758   1.084       .  S
C2750      C2751   1.410       .  A
C2750      H2759   1.084       .  S
C2751      C2752   1.408       .  A
C2752      H2760   1.084       .  S
C2761      C2762   1.404       .  A
C2761      C2766   1.406       .  A
C2761      H2777   1.083       .  S
C2762      C2763   1.406       .  A
C2762      H2778   1.083       .  S
C2763      C2773   1.413       .  A
C2763      C2764   1.412       .  A
C2764      C2770   1.411       .  A
C2764      C2765   1.419       .  A
C2765      C2767   1.411       .  A
C2765      C2766   1.412       .  A
C2766      C2774   1.413       .  A
C2767      C2776   1.406       .  A
C2767      C2768   1.404       .  A
C2768      C2769   1.400       .  A
C2768      H2779   1.084       .  S
C2769      C2770   1.404       .  A
C2769      H2780   1.083       .  S
C2770      C2771   1.407       .  A
C2771      C2772   1.410       .  A
C2771      H2781   1.084       .  S
C2772      C2773   1.411       .  A
C2773      H2782   1.084       .  S
C2774      C2775   1.411       .  A
C2774      H2783   1.084       .  S
C2775      C2776   1.410       .  A
C2776      H2784   1.084       .  S
C2785      C2786   1.403       .  A
C2785      C2790   1.405       .  A
C2785      H2801   1.083       .  S
C2786      C2787   1.406       .  A
C2786      H2802   1.083       .  S
C2787      C2797   1.412       .  A
C2787      C2788   1.412       .  A
C2788      C2794   1.411       .  A
C2788      C2789   1.417       .  A
C2789      C2791   1.411       .  A
C2789      C2790   1.412       .  A
C2790      C2798   1.410       .  A
C2791      C2800   1.406       .  A
C2791      C2792   1.404       .  A
C2792      C2793   1.400       .  A
C2792      H2803   1.084       .  S
C2793      C2794   1.404       .  A
C2793      H2804   1.084       .  S
C2794      C2795   1.406       .  A
C2795      C2796   1.409       .  A
C2795      H2805   1.084       .  S
C2796      C2797   1.411       .  A
C2797      H2806   1.084       .  S
C2798      C2799   1.410       .  A
C2798      H2807   1.084       .  S
C2799      C2800   1.409       .  A
C2800      H2808   1.084       .  S
C2809      C2810   1.401       .  A
C2809      C2814   1.404       .  A
C2809      H2825   1.083       .  S
C2810      C2811   1.404       .  A
C2810      H2826   1.083       .  S
C2811      C2821   1.408       .  A
C2811      C2812   1.412       .  A
C2812      C2818   1.411       .  A
C2812      C2813   1.415       .  A
C2813      C2815   1.411       .  A
C2813      C2814   1.412       .  A
C2814      C2822   1.408       .  A
C2815      C2824   1.405       .  A
C2815      C2816   1.404       .  A
C2816      C2817   1.400       .  A
C2816      H2827   1.084       .  S
C2817      C2818   1.404       .  A
C2817      H2828   1.084       .  S
C2818      C2819   1.405       .  A
C2819      C2820   1.408       .  A
C2819      H2829   1.084       .  S
C2820      C2821   1.409       .  A
C2821      H2830   1.084       .  S
C2822      C2823   1.408       .  A
C2822      H2831   1.084       .  S
C2823      C2824   1.410       .  A
C2824      H2832   1.084       .  S
C2833      C2834   1.400       .  A
C2833      C2838   1.403       .  A
C2833      H2849   1.083       .  S
C2834      C2835   1.404       .  A
C2834      H2850   1.083       .  S
C2835      C2845   1.405       .  A
C2835      C2836   1.412       .  A
C2836      C2842   1.412       .  A
C2836      C2837   1.413       .  A
C2837      C2839   1.410       .  A
C2837      C2838   1.413       .  A
C2838      C2846   1.407       .  A
C2839      C2848   1.400       .  A
C2839      C2840   1.404       .  A
C2840      C2841   1.398       .  A
C2840      H2851   1.084       .  S
C2841      C2842   1.403       .  A
C2841      H2852   1.084       .  S
C2842      C2843   1.403       .  A
C2843      C2844   1.406       .  A
C2843      H2853   1.084       .  S
C2844      C2845   1.406       .  A
C2845      H2854   1.084       .  S
C2846      C2847   1.405       .  A
C2846      H2855   1.084       .  S
C2847      C2848   1.408       .  A
C2848      H2856   1.085       .  S
C2857      C2858   1.404       .  A
C2857      C2862   1.405       .  A
C2857      H2873   1.083       .  S
C2858      C2859   1.405       .  A
C2858      H2874   1.083       .  S
C2859      C2869   1.413       .  A
C2859      C2860   1.413       .  A
C2860      C2866   1.410       .  A
C2860      C2861   1.415       .  A
C2861      C2863   1.412       .  A
C2861      C2862   1.412       .  A
C2862      C2870   1.410       .  A
C2863      C2872   1.402       .  A
C2863      C2864   1.402       .  A
C2864      C2865   1.397       .  A
C2864      H2875   1.084       .  S
C2865      C2866   1.404       .  A
C2865      H2876   1.084       .  S
C2866      C2867   1.401       .  A
C2867      C2868   1.409       .  A
C2867      H2877   1.084       .  S
C2868      C2869   1.410       .  A
C2869      H2878   1.084       .  S
C2870      C2871   1.409       .  A
C2870      H2879   1.084       .  S
C2871      C2872   1.406       .  A
C2872      H2880   1.084       .  S
C2881      C2882   1.403       .  A
C2881      C2886   1.405       .  A
C2881      H2897   1.083       .  S
C2882      C2883   1.405       .  A
C2882      H2898   1.083       .  S
C2883      C2893   1.410       .  A
C2883      C2884   1.412       .  A
C2884      C2890   1.410       .  A
C2884      C2885   1.411       .  A
C2885      C2887   1.410       .  A
C2885      C2886   1.412       .  A
C2886      C2894   1.409       .  A
C2887      C2896   1.396       .  A
C2887      C2888   1.402       .  A
C2888      C2889   1.394       .  A
C2888      H2899   1.084       .  S
C2889      C2890   1.402       .  A
C2889      H2900   1.084       .  S
C2890      C2891   1.395       .  A
C2891      C2892   1.405       .  A
C2891      H2901   1.084       .  S
C2892      C2893   1.409       .  A
C2893      H2902   1.084       .  S
C2894      C2895   1.409       .  A
C2894      H2903   1.084       .  S
C2895      C2896   1.405       .  A
C2896      H2904   1.084       .  S
C2905      C2906   1.403       .  A
C2905      C2910   1.405       .  A
C2905      H2921   1.083       .  S
C2906      C2907   1.405       .  A
C2906      H2922   1.083       .  S
C2907      C2917   1.412       .  A
C2907      C2908   1.413       .  A
C2908      C2914   1.411       .  A
C2908      C2909   1.416       .  A
C2909      C2911   1.411       .  A
C2909      C2910   1.412       .  A
C2910      C2918   1.410       .  A
C2911      C2920   1.402       .  A
C2911      C2912   1.403       .  A
C2912      C2913   1.398       .  A
C2912      H2923   1.084       .  S
C2913      C2914   1.403       .  A
C2913      H2924   1.084       .  S
C2914      C2915   1.402       .  A
C2915      C2916   1.407       .  A
C2915      H2925   1.085       .  S
C2916      C2917   1.409       .  A
C2917      H2926   1.084       .  S
C2918      C2919   1.410       .  A
C2918      H2927   1.084       .  S
C2919      C2920   1.407       .  A
C2920      H2928   1.084       .  S
C2929      C2930   1.397       .  A
C2929      C2934   1.403       .  A
C2929      H2945   1.084       .  S
C2930      C2931   1.403       .  A
C2930      H2946   1.084       .  S
C2931      C2941   1.400       .  A
C2931      C2932   1.411       .  A
C2932      C2938   1.411       .  A
C2932      C2933   1.409       .  A
C2933      C2935   1.412       .  A
C2933      C2934   1.410       .  A
C2934      C2942   1.398       .  A
C2935      C2944   1.403       .  A
C2935      C2936   1.403       .  A
C2936      C2937   1.398       .  A
C2936      H2947   1.083       .  S
C2937      C2938   1.403       .  A
C2937      H2948   1.084       .  S
C2938      C2939   1.402       .  A
C2939      C2940   1.405       .  A
C2939      H2949   1.084       .  S
C2940      C2941   1.407       .  A
C2941      H2950   1.084       .  S
C2942      C2943   1.406       .  A
C2942      H2951   1.084       .  S
C2943      C2944   1.405       .  A
C2944      H2952   1.084       .  S
C2953      C2954   1.398       .  A
C2953      C2958   1.403       .  A
C2953      H2969   1.084       .  S
C2954      C2955   1.403       .  A
C2954      H2970   1.084       .  S
C2955      C2965   1.400       .  A
C2955      C2956   1.411       .  A
C2956      C2962   1.413       .  A
C2956      C2957   1.413       .  A
C2957      C2959   1.412       .  A
C2957      C2958   1.411       .  A
C2958      C2966   1.402       .  A
C2959      C2968   1.407       .  A
C2959      C2960   1.405       .  A
C2960      C2961   1.401       .  A
C2960      H2971   1.083       .  S
C2961      C2962   1.404       .  A
C2961      H2972   1.084       .  S
C2962      C2963   1.407       .  A
C2963      C2964   1.405       .  A
C2963      H2973   1.084       .  S
C2964      C2965   1.406       .  A
C2965      H2974   1.085       .  S
C2966      C2967   1.407       .  A
C2966      H2975   1.084       .  S
C2967      C2968   1.408       .  A
C2968      H2976   1.084       .  S
C2977      C2978   1.400       .  A
C2977      C2982   1.404   1_565  A
C2977      H2993   1.083       .  S
C2978      C2979   1.404       .  A
C2978      H2994   1.084       .  S
C2979      C2989   1.404       .  A
C2979      C2980   1.411   1_565  A
C2980      C2986   1.412       .  A
C2980      C2981   1.410       .  A
C2981      C2983   1.410       .  A
C2981      C2982   1.412       .  A
C2982      C2990   1.406       .  A
C2983      C2992   1.397       .  A
C2983      C2984   1.402       .  A
C2984      C2985   1.396       .  A
C2984      H2995   1.084       .  S
C2985      C2986   1.402       .  A
C2985      H2996   1.084       .  S
C2986      C2987   1.399       .  A
C2987      C2988   1.405       .  A
C2987      H2997   1.084       .  S
C2988      C2989   1.407   1_545  A
C2989      H2998   1.084       .  S
C2990      C2991   1.407       .  A
C2990      H2999   1.084   1_545  S
C2991      C2992   1.405       .  A
C2992      H3000   1.084       .  S
C3001      C3002   1.396       .  A
C3001      C3006   1.402       .  A
C3001      H3017   1.084       .  S
C3002      C3003   1.402       .  A
C3002      H3018   1.084       .  S
C3003      C3013   1.399       .  A
C3003      C3004   1.411       .  A
C3004      C3010   1.413       .  A
C3004      C3005   1.415       .  A
C3005      C3007   1.412       .  A
C3005      C3006   1.411       .  A
C3006      C3014   1.399       .  A
C3007      C3016   1.412       .  A
C3007      C3008   1.406       .  A
C3008      C3009   1.404       .  A
C3008      H3019   1.083       .  S
C3009      C3010   1.406       .  A
C3009      H3020   1.083       .  S
C3010      C3011   1.412       .  A
C3011      C3012   1.409       .  A
C3011      H3021   1.084       .  S
C3012      C3013   1.406       .  A
C3013      H3022   1.085       .  S
C3014      C3015   1.407       .  A
C3014      H3023   1.084       .  S
C3015      C3016   1.410       .  A
C3016      H3024   1.084       .  S
C3025      C3026   1.398       .  A
C3025      C3030   1.403       .  A
C3025      H3041   1.084       .  S
C3026      C3027   1.403       .  A
C3026      H3042   1.084       .  S
C3027      C3037   1.401       .  A
C3027      C3028   1.411       .  A
C3028      C3034   1.411       .  A
C3028      C3029   1.408       .  A
C3029      C3031   1.410       .  A
C3029      C3030   1.413       .  A
C3030      C3038   1.402       .  A
C3031      C3040   1.395       .  A
C3031      C3032   1.402       .  A
C3032      C3033   1.395       .  A
C3032      H3043   1.084       .  S
C3033      C3034   1.402       .  A
C3033      H3044   1.084       .  S
C3034      C3035   1.398       .  A
C3035      C3036   1.405       .  A
C3035      H3045   1.084       .  S
C3036      C3037   1.405       .  A
C3037      H3046   1.084       .  S
C3038      C3039   1.404       .  A
C3038      H3047   1.084       .  S
C3039      C3040   1.405       .  A
C3040      H3048   1.084       .  S
C3049      C3050   1.402       .  A
C3049      C3054   1.404       .  A
C3049      H3065   1.083       .  S
C3050      C3051   1.404       .  A
C3050      H3066   1.083       .  S
C3051      C3061   1.407       .  A
C3051      C3052   1.411       .  A
C3052      C3058   1.412       .  A
C3052      C3053   1.416       .  A
C3053      C3055   1.410       .  A
C3053      C3054   1.413       .  A
C3054      C3062   1.410       .  A
C3055      C3064   1.404       .  A
C3055      C3056   1.404       .  A
C3056      C3057   1.400       .  A
C3056      H3067   1.084       .  S
C3057      C3058   1.404       .  A
C3057      H3068   1.084       .  S
C3058      C3059   1.406       .  A
C3059      C3060   1.410       .  A
C3059      H3069   1.084       .  S
C3060      C3061   1.407       .  A
C3061      H3070   1.084       .  S
C3062      C3063   1.408       .  A
C3062      H3071   1.084       .  S
C3063      C3064   1.409       .  A
C3064      H3072   1.084       .  S
C3073      C3074   1.401       .  A
C3073      C3078   1.404       .  A
C3073      H3089   1.083       .  S
C3074      C3075   1.404       .  A
C3074      H3090   1.083       .  S
C3075      C3085   1.407       .  A
C3075      C3076   1.412       .  A
C3076      C3082   1.412       .  A
C3076      C3077   1.415       .  A
C3077      C3079   1.410       .  A
C3077      C3078   1.413       .  A
C3078      C3086   1.410       .  A
C3079      C3088   1.402       .  A
C3079      C3080   1.404       .  A
C3080      C3081   1.399       .  A
C3080      H3091   1.084       .  S
C3081      C3082   1.404       .  A
C3081      H3092   1.084       .  S
C3082      C3083   1.404       .  A
C3083      C3084   1.408       .  A
C3083      H3093   1.084       .  S
C3084      C3085   1.407       .  A
C3085      H3094   1.084       .  S
C3086      C3087   1.407       .  A
C3086      H3095   1.084       .  S
C3087      C3088   1.410       .  A
C3088      H3096   1.084       .  S
C3097      C3098   1.395       .  A
C3097      C3102   1.402       .  A
C3097      H3113   1.084       .  S
C3098      C3099   1.402       .  A
C3098      H3114   1.084       .  S
C3099      C3109   1.397       .  A
C3099      C3100   1.410       .  A
C3100      C3106   1.413       .  A
C3100      C3101   1.415       .  A
C3101      C3103   1.412       .  A
C3101      C3102   1.411       .  A
C3102      C3110   1.399       .  A
C3103      C3112   1.413       .  A
C3103      C3104   1.406       .  A
C3104      C3105   1.405       .  A
C3104      H3115   1.083       .  S
C3105      C3106   1.406       .  A
C3105      H3116   1.083       .  S
C3106      C3107   1.414       .  A
C3107      C3108   1.411       .  A
C3107      H3117   1.084       .  S
C3108      C3109   1.406       .  A
C3109      H3118   1.084       .  S
C3110      C3111   1.407       .  A
C3110      H3119   1.084       .  S
C3111      C3112   1.411       .  A
C3112      H3120   1.084       .  S
C3121      C3122   1.400       .  A
C3121      C3126   1.404       .  A
C3121      H3137   1.084       .  S
C3122      C3123   1.404       .  A
C3122      H3138   1.084       .  S
C3123      C3133   1.405       .  A
C3123      C3124   1.411       .  A
C3124      C3130   1.412       .  A
C3124      C3125   1.416       .  A
C3125      C3127   1.411       .  A
C3125      C3126   1.411       .  A
C3126      C3134   1.407       .  A
C3127      C3136   1.407       .  A
C3127      C3128   1.404       .  A
C3128      C3129   1.401       .  A
C3128      H3139   1.083       .  S
C3129      C3130   1.404       .  A
C3129      H3140   1.083       .  S
C3130      C3131   1.407       .  A
C3131      C3132   1.408       .  A
C3131      H3141   1.084       .  S
C3132      C3133   1.409       .  A
C3133      H3142   1.084       .  S
C3134      C3135   1.410       .  A
C3134      H3143   1.084       .  S
C3135      C3136   1.409       .  A
C3136      H3144   1.084       .  S
C3145      C3146   1.400       .  A
C3145      C3150   1.404       .  A
C3145      H3161   1.084       .  S
C3146      C3147   1.404       .  A
C3146      H3162   1.084       .  S
C3147      C3157   1.405       .  A
C3147      C3148   1.411       .  A
C3148      C3154   1.412       .  A
C3148      C3149   1.417       .  A
C3149      C3151   1.412       .  A
C3149      C3150   1.411       .  A
C3150      C3158   1.406       .  A
C3151      C3160   1.411       .  A
C3151      C3152   1.405       .  A
C3152      C3153   1.403       .  A
C3152      H3163   1.083       .  S
C3153      C3154   1.405       .  A
C3153      H3164   1.083       .  S
C3154      C3155   1.410       .  A
C3155      C3156   1.409       .  A
C3155      H3165   1.084       .  S
C3156      C3157   1.410       .  A
C3157      H3166   1.084       .  S
C3158      C3159   1.410       .  A
C3158      H3167   1.084       .  S
C3159      C3160   1.410       .  A
C3160      H3168   1.084       .  S
C3169      C3170   1.397       .  A
C3169      C3174   1.403       .  A
C3169      H3185   1.084       .  S
C3170      C3171   1.403       .  A
C3170      H3186   1.084       .  S
C3171      C3181   1.401       .  A
C3171      C3172   1.411       .  A
C3172      C3178   1.412       .  A
C3172      C3173   1.415       .  A
C3173      C3175   1.412       .  A
C3173      C3174   1.411       .  A
C3174      C3182   1.401       .  A
C3175      C3184   1.410       .  A
C3175      C3176   1.405       .  A
C3176      C3177   1.403       .  A
C3176      H3187   1.083       .  S
C3177      C3178   1.405       .  A
C3177      H3188   1.083       .  S
C3178      C3179   1.410       .  A
C3179      C3180   1.409       .  A
C3179      H3189   1.084       .  S
C3180      C3181   1.405       .  A
C3181      H3190   1.084       .  S
C3182      C3183   1.408       .  A
C3182      H3191   1.084       .  S
C3183      C3184   1.409       .  A
C3184      H3192   1.084       .  S
C3193      C3194   1.401       .  A
C3193      C3198   1.405       .  A
C3193      H3209   1.083       .  S
C3194      C3195   1.404       .  A
C3194      H3210   1.083       .  S
C3195      C3205   1.407       .  A
C3195      C3196   1.411       .  A
C3196      C3202   1.412       .  A
C3196      C3197   1.415       .  A
C3197      C3199   1.411       .  A
C3197      C3198   1.412       .  A
C3198      C3206   1.408       .  A
C3199      C3208   1.404       .  A
C3199      C3200   1.404       .  A
C3200      C3201   1.399       .  A
C3200      H3211   1.084       .  S
C3201      C3202   1.404       .  A
C3201      H3212   1.084       .  S
C3202      C3203   1.404       .  A
C3203      C3204   1.408       .  A
C3203      H3213   1.084       .  S
C3204      C3205   1.408       .  A
C3205      H3214   1.084       .  S
C3206      C3207   1.409       .  A
C3206      H3215   1.084       .  S
C3207      C3208   1.408       .  A
C3208      H3216   1.084       .  S
C3217      C3218   1.406       .  A
C3217      C3222   1.407       .  A
C3217      H3233   1.083       .  S
C3218      C3219   1.407       .  A
C3218      H3234   1.083       .  S
C3219      C3229   1.415       .  A
C3219      C3220   1.412       .  A
C3220      C3226   1.410       .  A
C3220      C3221   1.414       .  A
C3221      C3223   1.410       .  A
C3221      C3222   1.413       .  A
C3222      C3230   1.415       .  A
C3223      C3232   1.394       .  A
C3223      C3224   1.401       .  A
C3224      C3225   1.393       .  A
C3224      H3235   1.084       .  S
C3225      C3226   1.401       .  A
C3225      H3236   1.084       .  S
C3226      C3227   1.395       .  A
C3227      C3228   1.406       .  A
C3227      H3237   1.084       .  S
C3228      C3229   1.411       .  A
C3229      H3238   1.084       .  S
C3230      C3231   1.412       .  A
C3230      H3239   1.084       .  S
C3231      C3232   1.405       .  A
C3232      H3240   1.084       .  S
C3241      C3242   1.401       .  A
C3241      C3246   1.404       .  A
C3241      H3257   1.084       .  S
C3242      C3243   1.405       .  A
C3242      H3258   1.083       .  S
C3243      C3253   1.408       .  A
C3243      C3244   1.412       .  A
C3244      C3250   1.412       .  A
C3244      C3245   1.416       .  A
C3245      C3247   1.412       .  A
C3245      C3246   1.411       .  A
C3246      C3254   1.406       .  A
C3247      C3256   1.408       .  A
C3247      C3248   1.404       .  A
C3248      C3249   1.401       .  A
C3248      H3259   1.083       .  S
C3249      C3250   1.404       .  A
C3249      H3260   1.083       .  S
C3250      C3251   1.408       .  A
C3251      C3252   1.408       .  A
C3251      H3261   1.084       .  S
C3252      C3253   1.410       .  A
C3253      H3262   1.084       .  S
C3254      C3255   1.409       .  A
C3254      H3263   1.084       .  S
C3255      C3256   1.408       .  A
C3256      H3264   1.084       .  S
C3265      C3266   1.405       .  A
C3265      C3270   1.406       .  A
C3265      H3281   1.083       .  S
C3266      C3267   1.406       .  A
C3266      H3282   1.083       .  S
C3267      C3277   1.414       .  A
C3267      C3268   1.413       .  A
C3268      C3274   1.410       .  A
C3268      C3269   1.418       .  A
C3269      C3271   1.412       .  A
C3269      C3270   1.411       .  A
C3270      C3278   1.413       .  A
C3271      C3280   1.405       .  A
C3271      C3272   1.403       .  A
C3272      C3273   1.398       .  A
C3272      H3283   1.084       .  S
C3273      C3274   1.403       .  A
C3273      H3284   1.084       .  S
C3274      C3275   1.404       .  A
C3275      C3276   1.409       .  A
C3275      H3285   1.084       .  S
C3276      C3277   1.412       .  A
C3277      H3286   1.084       .  S
C3278      C3279   1.412       .  A
C3278      H3287   1.084       .  S
C3279      C3280   1.408       .  A
C3280      H3288   1.084       .  S
C3289      C3290   1.398       .  A
C3289      C3294   1.404       .  A
C3289      H3305   1.084       .  S
C3290      C3291   1.403       .  A
C3290      H3306   1.084       .  S
C3291      C3301   1.402       .  A
C3291      C3292   1.411       .  A
C3292      C3298   1.412       .  A
C3292      C3293   1.414       .  A
C3293      C3295   1.413       .  A
C3293      C3294   1.411       .  A
C3294      C3302   1.402       .  A
C3295      C3304   1.409       .  A
C3295      C3296   1.405       .  A
C3296      C3297   1.402       .  A
C3296      H3307   1.083       .  S
C3297      C3298   1.405       .  A
C3297      H3308   1.083       .  S
C3298      C3299   1.408       .  A
C3299      C3300   1.409       .  A
C3299      H3309   1.084       .  S
C3300      C3301   1.407       .  A
C3301      H3310   1.084       .  S
C3302      C3303   1.407       .  A
C3302      H3311   1.085       .  S
C3303      C3304   1.407       .  A
C3304      H3312   1.084       .  S
C3313      C3314   1.396       .  A
C3313      C3318   1.402       .  A
C3313      H3329   1.084       .  S
C3314      C3315   1.402       .  A
C3314      H3330   1.084       .  S
C3315      C3325   1.399       .  A
C3315      C3316   1.410       .  A
C3316      C3322   1.412       .  A
C3316      C3317   1.415       .  A
C3317      C3319   1.412       .  A
C3317      C3318   1.411       .  A
C3318      C3326   1.399       .  A
C3319      C3328   1.413       .  A
C3319      C3320   1.406       .  A
C3320      C3321   1.405       .  A
C3320      H3331   1.083       .  S
C3321      C3322   1.406       .  A
C3321      H3332   1.083       .  S
C3322      C3323   1.413       .  A
C3323      C3324   1.410       .  A
C3323      H3333   1.084       .  S
C3324      C3325   1.406       .  A
C3325      H3334   1.084       .  S
C3326      C3327   1.406       .  A
C3326      H3335   1.084       .  S
C3327      C3328   1.411       .  A
C3328      H3336   1.084       .  S
C3337      C3338   1.404       .  A
C3337      C3342   1.405       .  A
C3337      H3353   1.083       .  S
C3338      C3339   1.406       .  A
C3338      H3354   1.083       .  S
C3339      C3349   1.411       .  A
C3339      C3340   1.412       .  A
C3340      C3346   1.411       .  A
C3340      C3341   1.417       .  A
C3341      C3343   1.411       .  A
C3341      C3342   1.412       .  A
C3342      C3350   1.411       .  A
C3343      C3352   1.403       .  A
C3343      C3344   1.403       .  A
C3344      C3345   1.398       .  A
C3344      H3355   1.084       .  S
C3345      C3346   1.403       .  A
C3345      H3356   1.084       .  S
C3346      C3347   1.405       .  A
C3347      C3348   1.408       .  A
C3347      H3357   1.084       .  S
C3348      C3349   1.411       .  A
C3349      H3358   1.084       .  S
C3350      C3351   1.411       .  A
C3350      H3359   1.084       .  S
C3351      C3352   1.407       .  A
C3352      H3360   1.084       .  S
C3361      C3362   1.400       .  A
C3361      C3366   1.403       .  A
C3361      H3377   1.084       .  S
C3362      C3363   1.404       .  A
C3362      H3378   1.083       .  S
C3363      C3373   1.407       .  A
C3363      C3364   1.412       .  A
C3364      C3370   1.411       .  A
C3364      C3365   1.416       .  A
C3365      C3367   1.411       .  A
C3365      C3366   1.411       .  A
C3366      C3374   1.405       .  A
C3367      C3376   1.408       .  A
C3367      C3368   1.405       .  A
C3368      C3369   1.402       .  A
C3368      H3379   1.084       .  S
C3369      C3370   1.406       .  A
C3369      H3380   1.083       .  S
C3370      C3371   1.409       .  A
C3371      C3372   1.412       .  A
C3371      H3381   1.084       .  S
C3372      C3373   1.408       .  A
C3373      H3382   1.084       .  S
C3374      C3375   1.407       .  A
C3374      H3383   1.084       .  S
C3375      C3376   1.411       .  A
C3376      H3384   1.084       .  S
C3385      C3386   1.395       .  A
C3385      C3390   1.402       .  A
C3385      H3401   1.084       .  S
C3386      C3387   1.402       .  A
C3386      H3402   1.084       .  S
C3387      C3397   1.395       .  A
C3387      C3388   1.411       .  A
C3388      C3394   1.412       .  A
C3388      C3389   1.409       .  A
C3389      C3391   1.412       .  A
C3389      C3390   1.411       .  A
C3390      C3398   1.396       .  A
C3391      C3400   1.406       .  A
C3391      C3392   1.405   1_455  A
C3392      C3393   1.401       .  A
C3392      H3403   1.083       .  S
C3393      C3394   1.404   1_655  A
C3393      H3404   1.084       .  S
C3394      C3395   1.404       .  A
C3395      C3396   1.406       .  A
C3395      H3405   1.084   1_455  S
C3396      C3397   1.404       .  A
C3397      H3406   1.084       .  S
C3398      C3399   1.404       .  A
C3398      H3407   1.084       .  S
C3399      C3400   1.408       .  A
C3400      H3408   1.084   1_455  S
C3409      C3410   1.397       .  A
C3409      C3414   1.403       .  A
C3409      H3425   1.084       .  S
C3410      C3411   1.404       .  A
C3410      H3426   1.084       .  S
C3411      C3421   1.400       .  A
C3411      C3412   1.410       .  A
C3412      C3418   1.413       .  A
C3412      C3413   1.413       .  A
C3413      C3415   1.412       .  A
C3413      C3414   1.411       .  A
C3414      C3422   1.401       .  A
C3415      C3424   1.407       .  A
C3415      C3416   1.404       .  A
C3416      C3417   1.402       .  A
C3416      H3427   1.083       .  S
C3417      C3418   1.404       .  A
C3417      H3428   1.083       .  S
C3418      C3419   1.410       .  A
C3419      C3420   1.406       .  A
C3419      H3429   1.084       .  S
C3420      C3421   1.409       .  A
C3421      H3430   1.085       .  S
C3422      C3423   1.406       .  A
C3422      H3431   1.085       .  S
C3423      C3424   1.407       .  A
C3424      H3432   1.084       .  S
C3433      C3434   1.401       .  A
C3433      C3438   1.404       .  A
C3433      H3449   1.083   1_655  S
C3434      C3435   1.404       .  A
C3434      H3450   1.083   1_655  S
C3435      C3445   1.405       .  A
C3435      C3436   1.413       .  A
C3436      C3442   1.411       .  A
C3436      C3437   1.409       .  A
C3437      C3439   1.411       .  A
C3437      C3438   1.412       .  A
C3438      C3446   1.405       .  A
C3439      C3448   1.397       .  A
C3439      C3440   1.402       .  A
C3440      C3441   1.395       .  A
C3440      H3451   1.084       .  S
C3441      C3442   1.402       .  A
C3441      H3452   1.084       .  S
C3442      C3443   1.396       .  A
C3443      C3444   1.403       .  A
C3443      H3453   1.085       .  S
C3444      C3445   1.406       .  A
C3445      H3454   1.084       .  S
C3446      C3447   1.407       .  A
C3446      H3455   1.084       .  S
C3447      C3448   1.404       .  A
C3448      H3456   1.084       .  S
C3457      C3458   1.395       .  A
C3457      C3462   1.402       .  A
C3457      H3473   1.084       .  S
C3458      C3459   1.402       .  A
C3458      H3474   1.084       .  S
C3459      C3469   1.395       .  A
C3459      C3460   1.409       .  A
C3460      C3466   1.414       .  A
C3460      C3461   1.412       .  A
C3461      C3463   1.411       .  A
C3461      C3462   1.411       .  A
C3462      C3470   1.398       .  A
C3463      C3472   1.408       .  A
C3463      C3464   1.405       .  A
C3464      C3465   1.403       .  A
C3464      H3475   1.083       .  S
C3465      C3466   1.405       .  A
C3465      H3476   1.083       .  S
C3466      C3467   1.410       .  A
C3467      C3468   1.407       .  A
C3467      H3477   1.084       .  S
C3468      C3469   1.407       .  A
C3469      H3478   1.084       .  S
C3470      C3471   1.406       .  A
C3470      H3479   1.084       .  S
C3471      C3472   1.408       .  A
C3472      H3480   1.084       .  S
C3481      C3482   1.398       .  A
C3481      C3486   1.403       .  A
C3481      H3497   1.084       .  S
C3482      C3483   1.404       .  A
C3482      H3498   1.084       .  S
C3483      C3493   1.401       .  A
C3483      C3484   1.411       .  A
C3484      C3490   1.411       .  A
C3484      C3485   1.409       .  A
C3485      C3487   1.412       .  A
C3485      C3486   1.411       .  A
C3486      C3494   1.401       .  A
C3487      C3496   1.399       .  A
C3487      C3488   1.402       .  A
C3488      C3489   1.396       .  A
C3488      H3499   1.084       .  S
C3489      C3490   1.402       .  A
C3489      H3500   1.084       .  S
C3490      C3491   1.399       .  A
C3491      C3492   1.404       .  A
C3491      H3501   1.084       .  S
C3492      C3493   1.407       .  A
C3493      H3502   1.084       .  S
C3494      C3495   1.407       .  A
C3494      H3503   1.084       .  S
C3495      C3496   1.403       .  A
C3496      H3504   1.084       .  S
C3505      C3506   1.402       .  A
C3505      C3510   1.405       .  A
C3505      H3521   1.083       .  S
C3506      C3507   1.405       .  A
C3506      H3522   1.083       .  S
C3507      C3517   1.409       .  A
C3507      C3508   1.412       .  A
C3508      C3514   1.411       .  A
C3508      C3509   1.415       .  A
C3509      C3511   1.411       .  A
C3509      C3510   1.412       .  A
C3510      C3518   1.409       .  A
C3511      C3520   1.402       .  A
C3511      C3512   1.403       .  A
C3512      C3513   1.398       .  A
C3512      H3523   1.084       .  S
C3513      C3514   1.403       .  A
C3513      H3524   1.084       .  S
C3514      C3515   1.402       .  A
C3515      C3516   1.408       .  A
C3515      H3525   1.084       .  S
C3516      C3517   1.409       .  A
C3517      H3526   1.084       .  S
C3518      C3519   1.409       .  A
C3518      H3527   1.084       .  S
C3519      C3520   1.408       .  A
C3520      H3528   1.084       .  S
C3529      C3530   1.399       .  A
C3529      C3534   1.404       .  A
C3529      H3545   1.084       .  S
C3530      C3531   1.404       .  A
C3530      H3546   1.084       .  S
C3531      C3541   1.404       .  A
C3531      C3532   1.410       .  A
C3532      C3538   1.413       .  A
C3532      C3533   1.417       .  A
C3533      C3535   1.412       .  A
C3533      C3534   1.411       .  A
C3534      C3542   1.405       .  A
C3535      C3544   1.409       .  A
C3535      C3536   1.405       .  A
C3536      C3537   1.403       .  A
C3536      H3547   1.083       .  S
C3537      C3538   1.405       .  A
C3537      H3548   1.083       .  S
C3538      C3539   1.412       .  A
C3539      C3540   1.410       .  A
C3539      H3549   1.084       .  S
C3540      C3541   1.410       .  A
C3541      H3550   1.084       .  S
C3542      C3543   1.408       .  A
C3542      H3551   1.084       .  S
C3543      C3544   1.409       .  A
C3544      H3552   1.084       .  S
C3553      C3554   1.399       .  A
C3553      C3558   1.403       .  A
C3553      H3569   1.084       .  S
C3554      C3555   1.404       .  A
C3554      H3570   1.084       .  S
C3555      C3565   1.405       .  A
C3555      C3556   1.411       .  A
C3556      C3562   1.412       .  A
C3556      C3557   1.417       .  A
C3557      C3559   1.412       .  A
C3557      C3558   1.411       .  A
C3558      C3566   1.404       .  A
C3559      C3568   1.411       .  A
C3559      C3560   1.405       .  A
C3560      C3561   1.403       .  A
C3560      H3571   1.083       .  S
C3561      C3562   1.405       .  A
C3561      H3572   1.083       .  S
C3562      C3563   1.412       .  A
C3563      C3564   1.410       .  A
C3563      H3573   1.084       .  S
C3564      C3565   1.409       .  A
C3565      H3574   1.084       .  S
C3566      C3567   1.408       .  A
C3566      H3575   1.084       .  S
C3567      C3568   1.411       .  A
C3568      H3576   1.084       .  S
C3577      C3578   1.399       .  A
C3577      C3582   1.404       .  A
C3577      H3593   1.084       .  S
C3578      C3579   1.404       .  A
C3578      H3594   1.084       .  S
C3579      C3589   1.403       .  A
C3579      C3580   1.411       .  A
C3580      C3586   1.412       .  A
C3580      C3581   1.415       .  A
C3581      C3583   1.411       .  A
C3581      C3582   1.412       .  A
C3582      C3590   1.405       .  A
C3583      C3592   1.407       .  A
C3583      C3584   1.404       .  A
C3584      C3585   1.401       .  A
C3584      H3595   1.083       .  S
C3585      C3586   1.404       .  A
C3585      H3596   1.083       .  S
C3586      C3587   1.408       .  A
C3587      C3588   1.409       .  A
C3587      H3597   1.084       .  S
C3588      C3589   1.408       .  A
C3589      H3598   1.084       .  S
C3590      C3591   1.408       .  A
C3590      H3599   1.084       .  S
C3591      C3592   1.409       .  A
C3592      H3600   1.084       .  S
C3601      C3602   1.402       .  A
C3601      C3606   1.405       .  A
C3601      H3617   1.083       .  S
C3602      C3603   1.405       .  A
C3602      H3618   1.083       .  S
C3603      C3613   1.408       .  A
C3603      C3604   1.411       .  A
C3604      C3610   1.412       .  A
C3604      C3605   1.416       .  A
C3605      C3607   1.411       .  A
C3605      C3606   1.412       .  A
C3606      C3614   1.410       .  A
C3607      C3616   1.404       .  A
C3607      C3608   1.404       .  A
C3608      C3609   1.399       .  A
C3608      H3619   1.084       .  S
C3609      C3610   1.403       .  A
C3609      H3620   1.084       .  S
C3610      C3611   1.404       .  A
C3611      C3612   1.407       .  A
C3611      H3621   1.084       .  S
C3612      C3613   1.409       .  A
C3613      H3622   1.084       .  S
C3614      C3615   1.410       .  A
C3614      H3623   1.084       .  S
C3615      C3616   1.408       .  A
C3616      H3624   1.084       .  S
C3625      C3626   1.397       .  A
C3625      C3630   1.403       .  A
C3625      H3641   1.084       .  S
C3626      C3627   1.403       .  A
C3626      H3642   1.084       .  S
C3627      C3637   1.403       .  A
C3627      C3628   1.412       .  A
C3628      C3634   1.411       .  A
C3628      C3629   1.413       .  A
C3629      C3631   1.414       .  A
C3629      C3630   1.410       .  A
C3630      C3638   1.398       .  A
C3631      C3640   1.408       .  A
C3631      C3632   1.404       .  A
C3632      C3633   1.401       .  A
C3632      H3643   1.083       .  S
C3633      C3634   1.405       .  A
C3633      H3644   1.083       .  S
C3634      C3635   1.406       .  A
C3635      C3636   1.409       .  A
C3635      H3645   1.084       .  S
C3636      C3637   1.407       .  A
C3637      H3646   1.084       .  S
C3638      C3639   1.404       .  A
C3638      H3647   1.085       .  S
C3639      C3640   1.405       .  A
C3640      H3648   1.084       .  S
C3649      C3650   1.401       .  A
C3649      C3654   1.404       .  A
C3649      H3665   1.083       .  S
C3650      C3651   1.404       .  A
C3650      H3666   1.083       .  S
C3651      C3661   1.407       .  A
C3651      C3652   1.412       .  A
C3652      C3658   1.411       .  A
C3652      C3653   1.415       .  A
C3653      C3655   1.411       .  A
C3653      C3654   1.412       .  A
C3654      C3662   1.408       .  A
C3655      C3664   1.405       .  A
C3655      C3656   1.404       .  A
C3656      C3657   1.400       .  A
C3656      H3667   1.084       .  S
C3657      C3658   1.404       .  A
C3657      H3668   1.084       .  S
C3658      C3659   1.406       .  A
C3659      C3660   1.410       .  A
C3659      H3669   1.084       .  S
C3660      C3661   1.408       .  A
C3661      H3670   1.084       .  S
C3662      C3663   1.407       .  A
C3662      H3671   1.084       .  S
C3663      C3664   1.408       .  A
C3664      H3672   1.084       .  S
C3673      C3674   1.402       .  A
C3673      C3678   1.405       .  A
C3673      H3689   1.084       .  S
C3674      C3675   1.405       .  A
C3674      H3690   1.083       .  S
C3675      C3685   1.409       .  A
C3675      C3676   1.412       .  A
C3676      C3682   1.411       .  A
C3676      C3677   1.415       .  A
C3677      C3679   1.412       .  A
C3677      C3678   1.411       .  A
C3678      C3686   1.407       .  A
C3679      C3688   1.406       .  A
C3679      C3680   1.403       .  A
C3680      C3681   1.399       .  A
C3680      H3691   1.083       .  S
C3681      C3682   1.403       .  A
C3681      H3692   1.084       .  S
C3682      C3683   1.404       .  A
C3683      C3684   1.407       .  A
C3683      H3693   1.084       .  S
C3684      C3685   1.410       .  A
C3685      H3694   1.084       .  S
C3686      C3687   1.410       .  A
C3686      H3695   1.084       .  S
C3687      C3688   1.407       .  A
C3688      H3696   1.084       .  S
C3697      C3698   1.404       .  A
C3697      C3702   1.406       .  A
C3697      H3713   1.083       .  S
C3698      C3699   1.406       .  A
C3698      H3714   1.083       .  S
C3699      C3709   1.412       .  A
C3699      C3700   1.413       .  A
C3700      C3706   1.410       .  A
C3700      C3701   1.414       .  A
C3701      C3703   1.410       .  A
C3701      C3702   1.413       .  A
C3702      C3710   1.412       .  A
C3703      C3712   1.398       .  A
C3703      C3704   1.402       .  A
C3704      C3705   1.395       .  A
C3704      H3715   1.084       .  S
C3705      C3706   1.402       .  A
C3705      H3716   1.084       .  S
C3706      C3707   1.398       .  A
C3707      C3708   1.406       .  A
C3707      H3717   1.084       .  S
C3708      C3709   1.410       .  A
C3709      H3718   1.084       .  S
C3710      C3711   1.409       .  A
C3710      H3719   1.084       .  S
C3711      C3712   1.407       .  A
C3712      H3720   1.084       .  S
C3721      C3722   1.402       .  A
C3721      C3726   1.405       .  A
C3721      H3737   1.084       .  S
C3722      C3723   1.406       .  A
C3722      H3738   1.083       .  S
C3723      C3733   1.410       .  A
C3723      C3724   1.411       .  A
C3724      C3730   1.412       .  A
C3724      C3725   1.418       .  A
C3725      C3727   1.411       .  A
C3725      C3726   1.412       .  A
C3726      C3734   1.409       .  A
C3727      C3736   1.408       .  A
C3727      C3728   1.404       .  A
C3728      C3729   1.401       .  A
C3728      H3739   1.083       .  S
C3729      C3730   1.404       .  A
C3729      H3740   1.083       .  S
C3730      C3731   1.409       .  A
C3731      C3732   1.408       .  A
C3731      H3741   1.084       .  S
C3732      C3733   1.412       .  A
C3733      H3742   1.084       .  S
C3734      C3735   1.411       .  A
C3734      H3743   1.084       .  S
C3735      C3736   1.409       .  A
C3736      H3744   1.084       .  S
C3745      C3746   1.399       .  A
C3745      C3750   1.404       .  A
C3745      H3761   1.084       .  S
C3746      C3747   1.404       .  A
C3746      H3762   1.084       .  S
C3747      C3757   1.403       .  A
C3747      C3748   1.410       .  A
C3748      C3754   1.413       .  A
C3748      C3749   1.416       .  A
C3749      C3751   1.411       .  A
C3749      C3750   1.412       .  A
C3750      C3758   1.406       .  A
C3751      C3760   1.408       .  A
C3751      C3752   1.405       .  A
C3752      C3753   1.403       .  A
C3752      H3763   1.083       .  S
C3753      C3754   1.405       .  A
C3753      H3764   1.083       .  S
C3754      C3755   1.412       .  A
C3755      C3756   1.409       .  A
C3755      H3765   1.084       .  S
C3756      C3757   1.409       .  A
C3757      H3766   1.084       .  S
C3758      C3759   1.408       .  A
C3758      H3767   1.084       .  S
C3759      C3760   1.408       .  A
C3760      H3768   1.084       .  S
C3769      C3770   1.398       .  A
C3769      C3774   1.403       .  A
C3769      H3785   1.083       .  S
C3770      C3771   1.403       .  A
C3770      H3786   1.084       .  S
C3771      C3781   1.402       .  A
C3771      C3772   1.411       .  A
C3772      C3778   1.412       .  A
C3772      C3773   1.417       .  A
C3773      C3775   1.411       .  A
C3773      C3774   1.412       .  A
C3774      C3782   1.405       .  A
C3775      C3784   1.411       .  A
C3775      C3776   1.406       .  A
C3776      C3777   1.404       .  A
C3776      H3787   1.083       .  S
C3777      C3778   1.406       .  A
C3777      H3788   1.083       .  S
C3778      C3779   1.412       .  A
C3779      C3780   1.411       .  A
C3779      H3789   1.084       .  S
C3780      C3781   1.407       .  A
C3781      H3790   1.084       .  S
C3782      C3783   1.408       .  A
C3782      H3791   1.084       .  S
C3783      C3784   1.411       .  A
C3784      H3792   1.084       .  S
C3793      C3794   1.402       .  A
C3793      C3798   1.405       .  A
C3793      H3809   1.084       .  S
C3794      C3795   1.405       .  A
C3794      H3810   1.083       .  S
C3795      C3805   1.409       .  A
C3795      C3796   1.412       .  A
C3796      C3802   1.411       .  A
C3796      C3797   1.417       .  A
C3797      C3799   1.412       .  A
C3797      C3798   1.411       .  A
C3798      C3806   1.408       .  A
C3799      C3808   1.408       .  A
C3799      C3800   1.404       .  A
C3800      C3801   1.401       .  A
C3800      H3811   1.083       .  S
C3801      C3802   1.405       .  A
C3801      H3812   1.083       .  S
C3802      C3803   1.408       .  A
C3803      C3804   1.410       .  A
C3803      H3813   1.084       .  S
C3804      C3805   1.411       .  A
C3805      H3814   1.084       .  S
C3806      C3807   1.410       .  A
C3806      H3815   1.084       .  S
C3807      C3808   1.409       .  A
C3808      H3816   1.084       .  S
C3817      C3818   1.401       .  A
C3817      C3822   1.405       .  A
C3817      H3833   1.084       .  S
C3818      C3819   1.405       .  A
C3818      H3834   1.084       .  S
C3819      C3829   1.405       .  A
C3819      C3820   1.411       .  A
C3820      C3826   1.413       .  A
C3820      C3821   1.416       .  A
C3821      C3823   1.412       .  A
C3821      C3822   1.412       .  A
C3822      C3830   1.407       .  A
C3823      C3832   1.407       .  A
C3823      C3824   1.404       .  A
C3824      C3825   1.401       .  A
C3824      H3835   1.083       .  S
C3825      C3826   1.404       .  A
C3825      H3836   1.083       .  S
C3826      C3827   1.409       .  A
C3827      C3828   1.406       .  A
C3827      H3837   1.084       .  S
C3828      C3829   1.409       .  A
C3829      H3838   1.085       .  S
C3830      C3831   1.409       .  A
C3830      H3839   1.084       .  S
C3831      C3832   1.406       .  A
C3832      H3840   1.084       .  S
C3841      C3842   1.400       .  A
C3841      C3846   1.403       .  A
C3841      H3857   1.083       .  S
C3842      C3843   1.404       .  A
C3842      H3858   1.083       .  S
C3843      C3853   1.403       .  A
C3843      C3844   1.412       .  A
C3844      C3850   1.411       .  A
C3844      C3845   1.409       .  A
C3845      C3847   1.410       .  A
C3845      C3846   1.412       .  A
C3846      C3854   1.404       .  A
C3847      C3856   1.396       .  A
C3847      C3848   1.402       .  A
C3848      C3849   1.395       .  A
C3848      H3859   1.084       .  S
C3849      C3850   1.402       .  A
C3849      H3860   1.084       .  S
C3850      C3851   1.397       .  A
C3851      C3852   1.405       .  A
C3851      H3861   1.084       .  S
C3852      C3853   1.406       .  A
C3853      H3862   1.084       .  S
C3854      C3855   1.405       .  A
C3854      H3863   1.084       .  S
C3855      C3856   1.405       .  A
C3856      H3864   1.084       .  S
C3865      C3866   1.405       .  A
C3865      C3870   1.406       .  A
C3865      H3881   1.083       .  S
C3866      C3867   1.406       .  A
C3866      H3882   1.083       .  S
C3867      C3877   1.412       .  A
C3867      C3868   1.413       .  A
C3868      C3874   1.410       .  A
C3868      C3869   1.414       .  A
C3869      C3871   1.411       .  A
C3869      C3870   1.412       .  A
C3870      C3878   1.412       .  A
C3871      C3880   1.399       .  A
C3871      C3872   1.402       .  A
C3872      C3873   1.395       .  A
C3872      H3883   1.084       .  S
C3873      C3874   1.402       .  A
C3873      H3884   1.084       .  S
C3874      C3875   1.398       .  A
C3875      C3876   1.406       .  A
C3875      H3885   1.084       .  S
C3876      C3877   1.409       .  A
C3877      H3886   1.084       .  S
C3878      C3879   1.410       .  A
C3878      H3887   1.084       .  S
C3879      C3880   1.405       .  A
C3880      H3888   1.084       .  S
C3889      C3890   1.395       .  A
C3889      C3894   1.402       .  A
C3889      H3905   1.084       .  S
C3890      C3891   1.402       .  A
C3890      H3906   1.084       .  S
C3891      C3901   1.397       .  A
C3891      C3892   1.411       .  A
C3892      C3898   1.412       .  A
C3892      C3893   1.410       .  A
C3893      C3895   1.412       .  A
C3893      C3894   1.411       .  A
C3894      C3902   1.397       .  A
C3895      C3904   1.404       .  A
C3895      C3896   1.404       .  A
C3896      C3897   1.400       .  A
C3896      H3907   1.084       .  S
C3897      C3898   1.404       .  A
C3897      H3908   1.083       .  S
C3898      C3899   1.405       .  A
C3899      C3900   1.407       .  A
C3899      H3909   1.084       .  S
C3900      C3901   1.405       .  A
C3901      H3910   1.084       .  S
C3902      C3903   1.405       .  A
C3902      H3911   1.084       .  S
C3903      C3904   1.406       .  A
C3904      H3912   1.084       .  S
C3913      C3914   1.404       .  A
C3913      C3918   1.406       .  A
C3913      H3929   1.083       .  S
C3914      C3915   1.405       .  A
C3914      H3930   1.083       .  S
C3915      C3925   1.413       .  A
C3915      C3916   1.413       .  A
C3916      C3922   1.410       .  A
C3916      C3917   1.415       .  A
C3917      C3919   1.412       .  A
C3917      C3918   1.412       .  A
C3918      C3926   1.411       .  A
C3919      C3928   1.401       .  A
C3919      C3920   1.402       .  A
C3920      C3921   1.397       .  A
C3920      H3931   1.084       .  S
C3921      C3922   1.403       .  A
C3921      H3932   1.084       .  S
C3922      C3923   1.401       .  A
C3923      C3924   1.409       .  A
C3923      H3933   1.084       .  S
C3924      C3925   1.409       .  A
C3925      H3934   1.084       .  S
C3926      C3927   1.410       .  A
C3926      H3935   1.084       .  S
C3927      C3928   1.405       .  A
C3928      H3936   1.084       .  S
C3937      C3938   1.398       .  A
C3937      C3942   1.403       .  A
C3937      H3953   1.084       .  S
C3938      C3939   1.403       .  A
C3938      H3954   1.083       .  S
C3939      C3949   1.402       .  A
C3939      C3940   1.411       .  A
C3940      C3946   1.411       .  A
C3940      C3941   1.409       .  A
C3941      C3943   1.410       .  A
C3941      C3942   1.412       .  A
C3942      C3950   1.401       .  A
C3943      C3952   1.397       .  A
C3943      C3944   1.403       .  A
C3944      C3945   1.397       .  A
C3944      H3955   1.084       .  S
C3945      C3946   1.403       .  A
C3945      H3956   1.084       .  S
C3946      C3947   1.399       .  A
C3947      C3948   1.406       .  A
C3947      H3957   1.084       .  S
C3948      C3949   1.406       .  A
C3949      H3958   1.084       .  S
C3950      C3951   1.404       .  A
C3950      H3959   1.084       .  S
C3951      C3952   1.406       .  A
C3952      H3960   1.084       .  S
C3961      C3962   1.404       .  A
C3961      C3966   1.406       .  A
C3961      H3977   1.083       .  S
C3962      C3963   1.406       .  A
C3962      H3978   1.083       .  S
C3963      C3973   1.413       .  A
C3963      C3964   1.412       .  A
C3964      C3970   1.411       .  A
C3964      C3965   1.417       .  A
C3965      C3967   1.411       .  A
C3965      C3966   1.412       .  A
C3966      C3974   1.412       .  A
C3967      C3976   1.403       .  A
C3967      C3968   1.403       .  A
C3968      C3969   1.398       .  A
C3968      H3979   1.084       .  S
C3969      C3970   1.403       .  A
C3969      H3980   1.084       .  S
C3970      C3971   1.403       .  A
C3971      C3972   1.408       .  A
C3971      H3981   1.084       .  S
C3972      C3973   1.410       .  A
C3973      H3982   1.084       .  S
C3974      C3975   1.411       .  A
C3974      H3983   1.084       .  S
C3975      C3976   1.408       .  A
C3976      H3984   1.084       .  S
C3985      C3986   1.404       .  A
C3985      C3990   1.405       .  A
C3985      H4001   1.083       .  S
C3986      C3987   1.405       .  A
C3986      H4002   1.083       .  S
C3987      C3997   1.411       .  A
C3987      C3988   1.412       .  A
C3988      C3994   1.411       .  A
C3988      C3989   1.415       .  A
C3989      C3991   1.410       .  A
C3989      C3990   1.413       .  A
C3990      C3998   1.411       .  A
C3991      C4000   1.402       .  A
C3991      C3992   1.403       .  A
C3992      C3993   1.398       .  A
C3992      H4003   1.084       .  S
C3993      C3994   1.403       .  A
C3993      H4004   1.084       .  S
C3994      C3995   1.402       .  A
C3995      C3996   1.406       .  A
C3995      H4005   1.084       .  S
C3996      C3997   1.409       .  A
C3997      H4006   1.084       .  S
C3998      C3999   1.408       .  A
C3998      H4007   1.084       .  S
C3999      C4000   1.409       .  A
C4000      H4008   1.084       .  S
C4009      C4010   1.397       .  A
C4009      C4014   1.403       .  A
C4009      H4025   1.084       .  S
C4010      C4011   1.403       .  A
C4010      H4026   1.084       .  S
C4011      C4021   1.402       .  A
C4011      C4012   1.411       .  A
C4012      C4018   1.412       .  A
C4012      C4013   1.414       .  A
C4013      C4015   1.413       .  A
C4013      C4014   1.410       .  A
C4014      C4022   1.399       .  A
C4015      C4024   1.409       .  A
C4015      C4016   1.405       .  A
C4016      C4017   1.403       .  A
C4016      H4027   1.083       .  S
C4017      C4018   1.405       .  A
C4017      H4028   1.083       .  S
C4018      C4019   1.410       .  A
C4019      C4020   1.410       .  A
C4019      H4029   1.084       .  S
C4020      C4021   1.408       .  A
C4021      H4030   1.084       .  S
C4022      C4023   1.407       .  A
C4022      H4031   1.084       .  S
C4023      C4024   1.409       .  A
C4024      H4032   1.084       .  S
C4033      C4034   1.402       .  A
C4033      C4038   1.405       .  A
C4033      H4049   1.083       .  S
C4034      C4035   1.405       .  A
C4034      H4050   1.083       .  S
C4035      C4045   1.411       .  A
C4035      C4036   1.412       .  A
C4036      C4042   1.411       .  A
C4036      C4037   1.418       .  A
C4037      C4039   1.412       .  A
C4037      C4038   1.411       .  A
C4038      C4046   1.409       .  A
C4039      C4048   1.408       .  A
C4039      C4040   1.404       .  A
C4040      C4041   1.401       .  A
C4040      H4051   1.083       .  S
C4041      C4042   1.404       .  A
C4041      H4052   1.083       .  S
C4042      C4043   1.407       .  A
C4043      C4044   1.410       .  A
C4043      H4053   1.084       .  S
C4044      C4045   1.410       .  A
C4045      H4054   1.084       .  S
C4046      C4047   1.411       .  A
C4046      H4055   1.084       .  S
C4047      C4048   1.410       .  A
C4048      H4056   1.084       .  S
C4057      C4058   1.405       .  A
C4057      C4062   1.406       .  A
C4057      H4073   1.083       .  S
C4058      C4059   1.406       .  A
C4058      H4074   1.083       .  S
C4059      C4069   1.414       .  A
C4059      C4060   1.412       .  A
C4060      C4066   1.411       .  A
C4060      C4061   1.417       .  A
C4061      C4063   1.411       .  A
C4061      C4062   1.413       .  A
C4062      C4070   1.414       .  A
C4063      C4072   1.402       .  A
C4063      C4064   1.403       .  A
C4064      C4065   1.397       .  A
C4064      H4075   1.084       .  S
C4065      C4066   1.403       .  A
C4065      H4076   1.084       .  S
C4066      C4067   1.402       .  A
C4067      C4068   1.408       .  A
C4067      H4077   1.084       .  S
C4068      C4069   1.411       .  A
C4069      H4078   1.084       .  S
C4070      C4071   1.410       .  A
C4070      H4079   1.084       .  S
C4071      C4072   1.408       .  A
C4072      H4080   1.084       .  S
C4081      C4082   1.402       .  A
C4081      C4086   1.405       .  A
C4081      H4097   1.083       .  S
C4082      C4083   1.405       .  A
C4082      H4098   1.083       .  S
C4083      C4093   1.409       .  A
C4083      C4084   1.412       .  A
C4084      C4090   1.411       .  A
C4084      C4085   1.415       .  A
C4085      C4087   1.411       .  A
C4085      C4086   1.412       .  A
C4086      C4094   1.408       .  A
C4087      C4096   1.404       .  A
C4087      C4088   1.404       .  A
C4088      C4089   1.399       .  A
C4088      H4099   1.084       .  S
C4089      C4090   1.403       .  A
C4089      H4100   1.084       .  S
C4090      C4091   1.404       .  A
C4091      C4092   1.408       .  A
C4091      H4101   1.084       .  S
C4092      C4093   1.410       .  A
C4093      H4102   1.084       .  S
C4094      C4095   1.409       .  A
C4094      H4103   1.084       .  S
C4095      C4096   1.408       .  A
C4096      H4104   1.084       .  S
C4105      C4106   1.399       .  A
C4105      C4110   1.404       .  A
C4105      H4121   1.083       .  S
C4106      C4107   1.404       .  A
C4106      H4122   1.084       .  S
C4107      C4117   1.403       .  A
C4107      C4108   1.410       .  A
C4108      C4114   1.413       .  A
C4108      C4109   1.418       .  A
C4109      C4111   1.412       .  A
C4109      C4110   1.411       .  A
C4110      C4118   1.406       .  A
C4111      C4120   1.413       .  A
C4111      C4112   1.406       .  A
C4112      C4113   1.404       .  A
C4112      H4123   1.083       .  S
C4113      C4114   1.405       .  A
C4113      H4124   1.083       .  S
C4114      C4115   1.412       .  A
C4115      C4116   1.409       .  A
C4115      H4125   1.084       .  S
C4116      C4117   1.409       .  A
C4117      H4126   1.084       .  S
C4118      C4119   1.410       .  A
C4118      H4127   1.084       .  S
C4119      C4120   1.412       .  A
C4120      H4128   1.084       .  S
C4129      C4130   1.401       .  A
C4129      C4134   1.404       .  A
C4129      H4145   1.083       .  S
C4130      C4131   1.404       .  A
C4130      H4146   1.083       .  S
C4131      C4141   1.407       .  A
C4131      C4132   1.412       .  A
C4132      C4138   1.411       .  A
C4132      C4133   1.413       .  A
C4133      C4135   1.411       .  A
C4133      C4134   1.413       .  A
C4134      C4142   1.407       .  A
C4135      C4144   1.401       .  A
C4135      C4136   1.403       .  A
C4136      C4137   1.398       .  A
C4136      H4147   1.084       .  S
C4137      C4138   1.403       .  A
C4137      H4148   1.084       .  S
C4138      C4139   1.402       .  A
C4139      C4140   1.408       .  A
C4139      H4149   1.084       .  S
C4140      C4141   1.408       .  A
C4141      H4150   1.084       .  S
C4142      C4143   1.405       .  A
C4142      H4151   1.084       .  S
C4143      C4144   1.405       .  A
C4144      H4152   1.085       .  S
C4153      C4154   1.398       .  A
C4153      C4158   1.403       .  A
C4153      H4169   1.084       .  S
C4154      C4155   1.403       .  A
C4154      H4170   1.084       .  S
C4155      C4165   1.402       .  A
C4155      C4156   1.410       .  A
C4156      C4162   1.412       .  A
C4156      C4157   1.415       .  A
C4157      C4159   1.412       .  A
C4157      C4158   1.411       .  A
C4158      C4166   1.403       .  A
C4159      C4168   1.410       .  A
C4159      C4160   1.405       .  A
C4160      C4161   1.403       .  A
C4160      H4171   1.083       .  S
C4161      C4162   1.405       .  A
C4161      H4172   1.083       .  S
C4162      C4163   1.410       .  A
C4163      C4164   1.409       .  A
C4163      H4173   1.084       .  S
C4164      C4165   1.408       .  A
C4165      H4174   1.084       .  S
C4166      C4167   1.409       .  A
C4166      H4175   1.084       .  S
C4167      C4168   1.409       .  A
C4168      H4176   1.084       .  S
C4177      C4178   1.401       .  A
C4177      C4182   1.404       .  A
C4177      H4193   1.083       .  S
C4178      C4179   1.404       .  A
C4178      H4194   1.083       .  S
C4179      C4189   1.407       .  A
C4179      C4180   1.411       .  A
C4180      C4186   1.412       .  A
C4180      C4181   1.416       .  A
C4181      C4183   1.411       .  A
C4181      C4182   1.412       .  A
C4182      C4190   1.408       .  A
C4183      C4192   1.406       .  A
C4183      C4184   1.404       .  A
C4184      C4185   1.401       .  A
C4184      H4195   1.084       .  S
C4185      C4186   1.405       .  A
C4185      H4196   1.083       .  S
C4186      C4187   1.408       .  A
C4187      C4188   1.410       .  A
C4187      H4197   1.084       .  S
C4188      C4189   1.408       .  A
C4189      H4198   1.084       .  S
C4190      C4191   1.409       .  A
C4190      H4199   1.084       .  S
C4191      C4192   1.409       .  A
C4192      H4200   1.084       .  S
C4201      C4202   1.406       .  A
C4201      C4206   1.406       .  A
C4201      H4217   1.083       .  S
C4202      C4203   1.407       .  A
C4202      H4218   1.083       .  S
C4203      C4213   1.413       .  A
C4203      C4204   1.411       .  A
C4204      C4210   1.412       .  A
C4204      C4205   1.416       .  A
C4205      C4207   1.409       .  A
C4205      C4206   1.414       .  A
C4206      C4214   1.416       .  A
C4207      C4216   1.398       .  A
C4207      C4208   1.403       .  A
C4208      C4209   1.396       .  A
C4208      H4219   1.084       .  S
C4209      C4210   1.402       .  A
C4209      H4220   1.084       .  S
C4210      C4211   1.401       .  A
C4211      C4212   1.405       .  A
C4211      H4221   1.084       .  S
C4212      C4213   1.412       .  A
C4213      H4222   1.084       .  S
C4214      C4215   1.411       .  A
C4214      H4223   1.084       .  S
C4215      C4216   1.408       .  A
C4216      H4224   1.084       .  S
C4225      C4226   1.396       .  A
C4225      C4230   1.402       .  A
C4225      H4241   1.084       .  S
C4226      C4227   1.402       .  A
C4226      H4242   1.084       .  S
C4227      C4237   1.399       .  A
C4227      C4228   1.410       .  A
C4228      C4234   1.412       .  A
C4228      C4229   1.414       .  A
C4229      C4231   1.412       .  A
C4229      C4230   1.411       .  A
C4230      C4238   1.399       .  A
C4231      C4240   1.411       .  A
C4231      C4232   1.406       .  A
C4232      C4233   1.404       .  A
C4232      H4243   1.083       .  S
C4233      C4234   1.406       .  A
C4233      H4244   1.083       .  S
C4234      C4235   1.412       .  A
C4235      C4236   1.410       .  A
C4235      H4245   1.084       .  S
C4236      C4237   1.406       .  A
C4237      H4246   1.084       .  S
C4238      C4239   1.406       .  A
C4238      H4247   1.084       .  S
C4239      C4240   1.410       .  A
C4240      H4248   1.084       .  S
C4249      C4250   1.404       .  A
C4249      C4254   1.406       .  A
C4249      H4265   1.083       .  S
C4250      C4251   1.406       .  A
C4250      H4266   1.083       .  S
C4251      C4261   1.412       .  A
C4251      C4252   1.412       .  A
C4252      C4258   1.411       .  A
C4252      C4253   1.417       .  A
C4253      C4255   1.411       .  A
C4253      C4254   1.412       .  A
C4254      C4262   1.412       .  A
C4255      C4264   1.403       .  A
C4255      C4256   1.403       .  A
C4256      C4257   1.397       .  A
C4256      H4267   1.084       .  S
C4257      C4258   1.403       .  A
C4257      H4268   1.084       .  S
C4258      C4259   1.402       .  A
C4259      C4260   1.407       .  A
C4259      H4269   1.084       .  S
C4260      C4261   1.412       .  A
C4261      H4270   1.084       .  S
C4262      C4263   1.411       .  A
C4262      H4271   1.084       .  S
C4263      C4264   1.407       .  A
C4264      H4272   1.084       .  S
C4273      C4274   1.405       .  A
C4273      C4278   1.406       .  A
C4273      H4289   1.083       .  S
C4274      C4275   1.406       .  A
C4274      H4290   1.083       .  S
C4275      C4285   1.414       .  A
C4275      C4276   1.413       .  A
C4276      C4282   1.410       .  A
C4276      C4277   1.417       .  A
C4277      C4279   1.411       .  A
C4277      C4278   1.412       .  A
C4278      C4286   1.413       .  A
C4279      C4288   1.401       .  A
C4279      C4280   1.403       .  A
C4280      C4281   1.397       .  A
C4280      H4291   1.084       .  S
C4281      C4282   1.403       .  A
C4281      H4292   1.084       .  S
C4282      C4283   1.402       .  A
C4283      C4284   1.409       .  A
C4283      H4293   1.084       .  S
C4284      C4285   1.410       .  A
C4285      H4294   1.084       .  S
C4286      C4287   1.411       .  A
C4286      H4295   1.084       .  S
C4287      C4288   1.407       .  A
C4288      H4296   1.084       .  S
C4297      C4298   1.399       .  A
C4297      C4302   1.404       .  A
C4297      H4313   1.084       .  S
C4298      C4299   1.404       .  A
C4298      H4314   1.084       .  S
C4299      C4309   1.405       .  A
C4299      C4300   1.411       .  A
C4300      C4306   1.412       .  A
C4300      C4301   1.417       .  A
C4301      C4303   1.412       .  A
C4301      C4302   1.411       .  A
C4302      C4310   1.404       .  A
C4303      C4312   1.411       .  A
C4303      C4304   1.405       .  A
C4304      C4305   1.403       .  A
C4304      H4315   1.083       .  S
C4305      C4306   1.405       .  A
C4305      H4316   1.083       .  S
C4306      C4307   1.412       .  A
C4307      C4308   1.410       .  A
C4307      H4317   1.084       .  S
C4308      C4309   1.410       .  A
C4309      H4318   1.084       .  S
C4310      C4311   1.409       .  A
C4310      H4319   1.084       .  S
C4311      C4312   1.410       .  A
C4312      H4320   1.084       .  S
C4321      C4322   1.400       .  A
C4321      C4326   1.404       .  A
C4321      H4337   1.084       .  S
C4322      C4323   1.404       .  A
C4322      H4338   1.084       .  S
C4323      C4333   1.406       .  A
C4323      C4324   1.411       .  A
C4324      C4330   1.412       .  A
C4324      C4325   1.417       .  A
C4325      C4327   1.412       .  A
C4325      C4326   1.411       .  A
C4326      C4334   1.406       .  A
C4327      C4336   1.409       .  A
C4327      C4328   1.405       .  A
C4328      C4329   1.403       .  A
C4328      H4339   1.083       .  S
C4329      C4330   1.405       .  A
C4329      H4340   1.083       .  S
C4330      C4331   1.411       .  A
C4331      C4332   1.411       .  A
C4331      H4341   1.084       .  S
C4332      C4333   1.409       .  A
C4333      H4342   1.084       .  S
C4334      C4335   1.409       .  A
C4334      H4343   1.084       .  S
C4335      C4336   1.409       .  A
C4336      H4344   1.084       .  S
C4345      C4346   1.403       .  A
C4345      C4350   1.405       .  A
C4345      H4361   1.083       .  S
C4346      C4347   1.405       .  A
C4346      H4362   1.083       .  S
C4347      C4357   1.409       .  A
C4347      C4348   1.412       .  A
C4348      C4354   1.411       .  A
C4348      C4349   1.417       .  A
C4349      C4351   1.411       .  A
C4349      C4350   1.412       .  A
C4350      C4358   1.411       .  A
C4351      C4360   1.406       .  A
C4351      C4352   1.404       .  A
C4352      C4353   1.400       .  A
C4352      H4363   1.083       .  S
C4353      C4354   1.404       .  A
C4353      H4364   1.084       .  S
C4354      C4355   1.405       .  A
C4355      C4356   1.409       .  A
C4355      H4365   1.084       .  S
C4356      C4357   1.409       .  A
C4357      H4366   1.084       .  S
C4358      C4359   1.411       .  A
C4358      H4367   1.084       .  S
C4359      C4360   1.409       .  A
C4360      H4368   1.084       .  S
C4369      C4370   1.394       .  A
C4369      C4374   1.402       .  A
C4369      H4385   1.084       .  S
C4370      C4371   1.401       .  A
C4370      H4386   1.084       .  S
C4371      C4381   1.397       .  A
C4371      C4372   1.411       .  A
C4372      C4378   1.412       .  A
C4372      C4373   1.413       .  A
C4373      C4375   1.414       .  A
C4373      C4374   1.409       .  A
C4374      C4382   1.395       .  A
C4375      C4384   1.413       .  A
C4375      C4376   1.406       .  A
C4376      C4377   1.405       .  A
C4376      H4387   1.083       .  S
C4377      C4378   1.406       .  A
C4377      H4388   1.083       .  S
C4378      C4379   1.412       .  A
C4379      C4380   1.411       .  A
C4379      H4389   1.084       .  S
C4380      C4381   1.405       .  A
C4381      H4390   1.084       .  S
C4382      C4383   1.406       .  A
C4382      H4391   1.085       .  S
C4383      C4384   1.409       .  A
C4384      H4392   1.084       .  S
