geometry optimzed in LAMMPS
_audit_creation_date              2020-11-30 
_audit_creation_method            'lammps2cif' 
_symmetry_space_group_name_H-M    'P1' 
_symmetry_Int_Tables_number       1 
_symmetry_cell_setting            triclinic 
loop_ 
_symmetry_equiv_pos_as_xyz 
  x,y,z 
_cell_length_a                    43.00759343 
_cell_length_b                    42.73089594153991 
_cell_length_c                    24.973066387471764 
_cell_angle_alpha                 89.39532289374768 
_cell_angle_beta                  90.574379022494 
_cell_angle_gamma                 89.76477066266142 
loop_ 
_atom_site_label 
_atom_site_type_symbol 
_atom_site_fract_x 
_atom_site_fract_y 
_atom_site_fract_z 
_atom_site_charge 
C1          C  0.90319713  0.39802355  0.75878558    -0.02300
C2          C  0.04314299  0.40400522  0.74287854    -0.02300
C3          C  0.90237827  0.54005781  0.75374235    -0.02300
C4          C  0.04537965  0.54462624  0.75932786    -0.02300
C5          C  0.40277959  0.90477879  0.26707670    -0.02300
C6          C  0.40740902  0.04841317  0.24398939    -0.02300
C7          C  0.54798818  0.04669671  0.25133169    -0.02300
C8          C  0.54159749  0.90490146  0.24003563    -0.02300
O9          O  0.81690126  0.61926114  0.39385750    -0.57600
C10         C  0.85650951  0.60669963  0.55697658     0.75000
O11         O  0.88674118  0.68515848  0.47888166    -0.58800
C12         C  0.83087621  0.63382453  0.35665069     0.75000
C13         C  0.79525041  0.69426477  0.48457850     0.77400
Cd14       Cd  0.84355664  0.64826282  0.46634419     1.37500
O15         O  0.84831508  0.59512756  0.51247445    -0.57600
O16         O  0.78886861  0.66534623  0.48325124    -0.56400
C17         C  0.90621895  0.66824600  0.45451305     0.77400
O18         O  0.82364495  0.70095665  0.47948481    -0.58800
O19         O  0.85574242  0.63621160  0.55904286    -0.57200
O20         O  0.85071855  0.65387323  0.37070358    -0.57200
O21         O  0.89629919  0.64281209  0.43550750    -0.56400
O22         O  0.12432086  0.62368436  0.41317615    -0.57600
C23         C  0.09506130  0.61753612  0.57530691     0.75000
O24         O  0.11930836  0.71252542  0.49673285    -0.58800
C25         C  0.11307022  0.63992328  0.37461857     0.75000
C26         C  0.03819926  0.67326530  0.46748765     0.77400
Cd27       Cd  0.10250341  0.65843537  0.48270573     1.37500
O28         O  0.10510632  0.60660772  0.53176910    -0.57600
O29         O  0.05080662  0.64971342  0.44636277    -0.56400
C30         C  0.14815321  0.70704626  0.49955405     0.77400
O31         O  0.05566401  0.69062523  0.49535430    -0.58800
O32         O  0.09108178  0.64683052  0.57577140    -0.57200
O33         O  0.09877219  0.66461375  0.38702909    -0.57200
O34         O  0.15599234  0.67856154  0.49538957    -0.56400
O35         O  0.11877378  0.62725749  0.11448052    -0.57600
C36         C  0.11079812  0.59967027  0.94670990     0.75000
O37         O  0.20343253  0.62669807  0.03018234    -0.58800
C38         C  0.13472798  0.61348884  0.15082481     0.75000
C39         C  0.16782961  0.54281390  0.03138187     0.77400
Cd40       Cd  0.15080538  0.60688640  0.03955490     1.37500
O41         O  0.09909541  0.60346731  0.99264678    -0.57600
O42         O  0.13999354  0.55209112  0.03441087    -0.56400
C43         C  0.19668410  0.65532565  0.02417321     0.77400
O44         O  0.18894041  0.56327684  0.03533140    -0.58800
O45         O  0.13988811  0.60374603  0.94383035    -0.57200
O46         O  0.15664383  0.59646750  0.13468460    -0.57200
O47         O  0.16785041  0.66177833  0.02299720    -0.56400
O48         O  0.12346520  0.32433442  0.08894663    -0.57600
C49         C  0.11528184  0.34779268  0.92348706     0.75000
O50         O  0.19200712  0.39106614  0.01648640    -0.58800
C51         C  0.13796773  0.33795077  0.12642043     0.75000
C52         C  0.20261222  0.29712644  0.00502685     0.77400
Cd53       Cd  0.15628916  0.34549537  0.01586981     1.37500
O54         O  0.10506028  0.34438204  0.97063567    -0.57600
O55         O  0.17436855  0.29097288  0.01383845    -0.56400
C56         C  0.16988576  0.41060557  0.01145293     0.77400
O57         O  0.20901636  0.32586029  0.99906815    -0.58800
O58         O  0.14450112  0.34641491  0.91849204    -0.57200
O59         O  0.16002472  0.35547009  0.11199705    -0.57200
O60         O  0.14265486  0.39974817  0.00967011    -0.56400
O61         O  0.82701120  0.62296868  0.09271688    -0.57600
C62         C  0.83076466  0.59641361  0.92975137     0.75000
O63         O  0.75646707  0.55980235  0.01291420    -0.58800
C64         C  0.80764313  0.61821142  0.12992821     0.75000
C65         C  0.74472163  0.65251458  0.00023707     0.77400
Cd66       Cd  0.79089440  0.60531220  0.02092847     1.37500
O67         O  0.84200124  0.60516667  0.97419271    -0.57600
O68         O  0.77334685  0.65917316  0.00374237    -0.56400
C69         C  0.77536792  0.54157720  0.03690504     0.77400
O70         O  0.73801835  0.62379540  0.00439513    -0.58800
O71         O  0.80143625  0.59473263  0.92738052    -0.57200
O72         O  0.78099713  0.60900398  0.11547007    -0.57200
O73         O  0.80065977  0.55326962  0.05305691    -0.56400
O74         O  0.82856494  0.32659615  0.10999098    -0.57600
C75         C  0.82861866  0.35422839  0.94369467     0.75000
O76         O  0.73961122  0.32511444  0.02304720    -0.58800
C77         C  0.81010200  0.33178267  0.14826197     0.75000
C78         C  0.77662640  0.40901385  0.05292926     0.77400
Cd79       Cd  0.79181970  0.34521171  0.03916925     1.37500
O80         O  0.84057915  0.34223244  0.98587611    -0.57600
O81         O  0.80323734  0.39793332  0.06398702    -0.56400
C82         C  0.74758953  0.29669789  0.01894610     0.77400
O83         O  0.75623846  0.39010376  0.03600500    -0.58800
O84         O  0.79985841  0.36001050  0.94573118    -0.57200
O85         O  0.78367742  0.34259026  0.13510529    -0.57200
O86         O  0.77643726  0.29107644  0.02279623    -0.56400
O87         O  0.82791756  0.32199029  0.41205480    -0.57600
C88         C  0.85894644  0.32448429  0.57175288     0.75000
O89         O  0.83304614  0.23010636  0.48888093    -0.58800
C90         C  0.83442609  0.30462025  0.37273633     0.75000
C91         C  0.91288823  0.27020679  0.46331419     0.77400
Cd92       Cd  0.84921967  0.28455232  0.47988381     1.37500
O93         O  0.84451764  0.33478738  0.53066678    -0.57600
O94         O  0.89924681  0.29289191  0.44015403    -0.56400
C95         C  0.80471546  0.23543341  0.49792037     0.77400
O96         O  0.89666785  0.25341953  0.49432701    -0.58800
O97         O  0.86684679  0.29600772  0.57027441    -0.57200
O98         O  0.84677267  0.27843331  0.38383133    -0.57200
O99         O  0.79699632  0.26402968  0.50045568    -0.56400
O100        O  0.12623032  0.33601267  0.39167062    -0.57600
C101        C  0.09374126  0.34629569  0.54845064     0.75000
O102        O  0.06464712  0.26513639  0.49142212    -0.58800
C103        C  0.11835205  0.31758440  0.35439412     0.75000
C104        C  0.15460289  0.25700713  0.48418820     0.77400
Cd105      Cd  0.10610372  0.30187214  0.46469570     1.37500
O106        O  0.08546417  0.35130166  0.50043961    -0.57600
O107        O  0.16101484  0.28561343  0.47604209    -0.56400
C108        C  0.04470466  0.27701188  0.45951679     0.77400
O109        O  0.12604293  0.25033879  0.48672985    -0.58800
O110        O  0.11133754  0.32296918  0.55690160    -0.57200
O111        O  0.10589021  0.29222741  0.36910291    -0.57200
O112        O  0.05394766  0.29905493  0.42969001    -0.56400
O113        O  0.62013993  0.82169442  0.59311048    -0.57600
C114        C  0.61063353  0.85995185  0.43613907     0.75000
O115        O  0.69335522  0.87835578  0.47992315    -0.58800
C116        C  0.63740384  0.83104822  0.63124651     0.75000
C117        C  0.69887096  0.79001277  0.50156570     0.77400
Cd118      Cd  0.65588906  0.84110409  0.51990164     1.37500
O119        O  0.62408795  0.83351614  0.43552019    -0.57600
O120        O  0.66978430  0.78545515  0.50100021    -0.56400
C121        C  0.68999323  0.89799674  0.51711205     0.77400
O122        O  0.70721103  0.81804349  0.50821269    -0.58800
O123        O  0.61578749  0.87588630  0.47755054    -0.57200
O124        O  0.66219797  0.84424910  0.61725584    -0.57200
O125        O  0.67239148  0.89022468  0.55521415    -0.56400
O126        O  0.61915899  0.06588223  0.49017514    -0.57600
C127        C  0.64753785  0.10094988  0.64028529     0.75000
O128        O  0.70196732  0.04793384  0.49447506    -0.58800
C129        C  0.62347677  0.07886940  0.44507992     0.75000
C130        C  0.71169531  0.13769549  0.51807213     0.77400
Cd131      Cd  0.66754678  0.08789446  0.53268293     1.37500
O132        O  0.67190409  0.08564359  0.62991707    -0.57600
O133        O  0.68269099  0.14263625  0.51883811    -0.56400
C134        C  0.69532578  0.02743857  0.52941815     0.77400
O135        O  0.72008216  0.10937785  0.52306119    -0.58800
O136        O  0.63157230  0.10998843  0.60000733    -0.57200
O137        O  0.64608557  0.09758679  0.44329205    -0.57200
O138        O  0.67708253  0.03563639  0.56609280    -0.56400
O139        O  0.60993454  0.10437975  0.02144148    -0.57600
C140        C  0.62232109  0.13221823  0.86165254     0.75000
O141        O  0.56191968  0.18846486  0.97503944    -0.58800
C142        C  0.59502906  0.11556506  0.06044958     0.75000
C143        C  0.65283931  0.20193927  0.98774538     0.77400
Cd144      Cd  0.60740918  0.15408198  0.96707977     1.37500
O145        O  0.63167912  0.11727414  0.90297618    -0.57600
O146        O  0.65886596  0.17328449  0.99649250    -0.56400
C147        C  0.54373200  0.16977825  0.95137344     0.77400
O148        O  0.62581676  0.20797624  0.97029525    -0.58800
O149        O  0.60694081  0.15691073  0.87001775    -0.57200
O150        O  0.58813236  0.14425813  0.05652526    -0.57200
O151        O  0.55570533  0.14494322  0.93343761    -0.56400
O152        O  0.32402291  0.12517122  0.88857268    -0.57600
C153        C  0.35300831  0.11573406  0.05657527     0.75000
O154        O  0.39346413  0.18791886  0.97306901    -0.58800
C155        C  0.33256636  0.14467115  0.85279898     0.75000
C156        C  0.30005003  0.20330166  0.98489086     0.77400
Cd157      Cd  0.34600385  0.15614200  0.96356945     1.37500
O158        O  0.34612376  0.10373473  0.01175544    -0.57600
O159        O  0.29262227  0.17497934  0.97736273    -0.56400
C160        C  0.41069438  0.16824318  0.94979592     0.77400
O161        O  0.32884012  0.20922956  0.98416712    -0.58800
O162        O  0.35345326  0.14528795  0.05742782    -0.57200
O163        O  0.34596233  0.16893473  0.86957779    -0.57200
O164        O  0.39772615  0.14354266  0.93377329    -0.56400
O165        O  0.62283806  0.82370997  0.89376775    -0.57600
C166        C  0.59602659  0.83823989  0.05642424     0.75000
O167        O  0.55479276  0.76174710  0.00127089    -0.58800
C168        C  0.61044799  0.80734934  0.85711446     0.75000
C169        C  0.64601440  0.74540376  0.98342345     0.77400
Cd170      Cd  0.59952156  0.79327362  0.96973088     1.37500
O171        O  0.59265568  0.84632975  0.00772943    -0.57600
O172        O  0.65288347  0.77421196  0.98186371    -0.56400
C173        C  0.53540712  0.77625676  0.97152253     0.77400
O174        O  0.61734132  0.73908297  0.98079437    -0.58800
O175        O  0.60425785  0.81017606  0.06471426    -0.57200
O176        O  0.59332271  0.78534069  0.87326952    -0.57200
O177        O  0.54600098  0.79765897  0.94174203    -0.56400
O178        O  0.34147070  0.84928233  0.03564452    -0.57600
C179        C  0.32910592  0.81378043  0.87737997     0.75000
O180        O  0.38405374  0.76186236  0.00533704    -0.58800
C181        C  0.34975727  0.83713439  0.08012541     0.75000
C182        C  0.29044064  0.75307558  0.00697957     0.77400
Cd183      Cd  0.33977098  0.79752034  0.98847194     1.37500
O184        O  0.32052051  0.83221613  0.91411071    -0.57600
O185        O  0.28503739  0.78222279  0.00479500    -0.56400
C186        C  0.40344974  0.77951029  0.98222083     0.77400
O187        O  0.31866495  0.74512602  0.00244748    -0.58800
O188        O  0.34170114  0.78854754  0.89312476    -0.57200
O189        O  0.35047605  0.80758374  0.08166611    -0.57200
O190        O  0.39314650  0.80456249  0.96118806    -0.56400
O191        O  0.32048446  0.83124795  0.61479566    -0.57600
C192        C  0.32589507  0.86196475  0.45007913     0.75000
O193        O  0.23398372  0.83184505  0.53093107    -0.58800
C194        C  0.30496119  0.84286982  0.65277069     0.75000
C195        C  0.26823572  0.91765215  0.54680050     0.77400
Cd196      Cd  0.28633906  0.85351827  0.54248983     1.37500
O197        O  0.33755579  0.85471682  0.49542270    -0.57600
O198        O  0.29513552  0.90789976  0.55941339    -0.56400
C199        C  0.24228459  0.80360064  0.52561832     0.77400
O200        O  0.24869174  0.89739786  0.53158990    -0.58800
O201        O  0.29656931  0.86249124  0.44783915    -0.57200
O202        O  0.28142445  0.85894296  0.63922836    -0.57200
O203        O  0.27131065  0.79863510  0.52673293    -0.56400
O204        O  0.32697321  0.13313042  0.59033085    -0.57600
C205        C  0.33710908  0.09859854  0.42965181     0.75000
O206        O  0.25691507  0.06883710  0.49865108    -0.58800
C207        C  0.30967688  0.12206888  0.62687379     0.75000
C208        C  0.25191037  0.16257341  0.49848337     0.77400
Cd209      Cd  0.29465861  0.11159669  0.51637197     1.37500
O210        O  0.34781762  0.10460494  0.47584448    -0.57600
O211        O  0.28074448  0.16762267  0.50394377    -0.56400
C212        C  0.27134210  0.04958328  0.52889083     0.77400
O213        O  0.24388844  0.13413898  0.49835234    -0.58800
O214        O  0.30799379  0.10136585  0.42402933    -0.57200
O215        O  0.28606701  0.10710357  0.61143489    -0.57200
O216        O  0.29559234  0.05952496  0.55203465    -0.56400
C217        C  0.24734911  0.96573016  0.50298834    -0.20100
C218        C  0.26105350  0.95129299  0.54818281    -0.06700
C219        C  0.27161994  0.96982238  0.59103875     0.14200
C220        C  0.27153530  0.00230657  0.58515846    -0.20100
C221        C  0.26178831  0.01676492  0.53717550    -0.06700
C222        C  0.24767221  0.99849546  0.49676719     0.14200
C223        C  0.23482556  0.01298667  0.44590590    -0.23500
H224        H  0.23864752  0.95131961  0.47072446     0.15500
H225        H  0.28106334  0.01644344  0.61714741     0.15500
C226        C  0.28361442  0.95553596  0.64273531    -0.23400
H227        H  0.22492499  0.99508718  0.41877128     0.05700
H228        H  0.25357984  0.02537760  0.42408512     0.09000
H229        H  0.21598032  0.02974936  0.45560941     0.09000
H230        H  0.30548396  0.94245501  0.63584974     0.08900
H231        H  0.26581790  0.93956011  0.65953905     0.08900
H232        H  0.28875985  0.97363086  0.67314789     0.05700
C233        C  0.31159035  0.85034321  0.80468001    -0.20100
C234        C  0.32469815  0.82127079  0.81923146    -0.06700
C235        C  0.33341008  0.80037614  0.77788577     0.14200
C236        C  0.32735163  0.80858486  0.72414877    -0.20100
C237        C  0.31305932  0.83703664  0.71000114    -0.06700
C238        C  0.30593232  0.85861480  0.75084781     0.14200
C239        C  0.29340340  0.89086741  0.73819272    -0.23500
H240        H  0.30565012  0.86683221  0.83565198     0.15500
H241        H  0.33320200  0.79224662  0.69285827     0.15500
C242        C  0.34897310  0.76925241  0.78918608    -0.23400
H243        H  0.29153521  0.90539435  0.77466805     0.05700
H244        H  0.26978219  0.88932158  0.72018252     0.09000
H245        H  0.30929594  0.90299372  0.71020355     0.09000
H246        H  0.33347757  0.75412360  0.81345472     0.08900
H247        H  0.37138871  0.77290151  0.81057546     0.08900
H248        H  0.35421278  0.75645376  0.75181627     0.05700
C249        C  0.48742626  0.76774067  0.02311777    -0.20100
C250        C  0.50179828  0.77016695  0.97305131    -0.06700
C251        C  0.48337906  0.77093139  0.92582501     0.14200
C252        C  0.45097565  0.77207752  0.93008295    -0.20100
C253        C  0.43670848  0.77206212  0.98019661    -0.06700
C254        C  0.45492849  0.76897180  0.02729293     0.14200
C255        C  0.44029868  0.76927703  0.08189030    -0.23500
H256        H  0.50166715  0.76711568  0.05918725     0.15500
H257        H  0.43668183  0.77409387  0.89416660     0.15500
C258        C  0.49769584  0.77053857  0.87091495    -0.23400
H259        H  0.45804784  0.76758768  0.11443713     0.05700
H260        H  0.42431769  0.74909510  0.08613806     0.09000
H261        H  0.42704477  0.79137399  0.08715930     0.09000
H262        H  0.51343168  0.75000644  0.86760165     0.08900
H263        H  0.51094879  0.79232892  0.86345454     0.08900
H264        H  0.47970827  0.76884760  0.83884559     0.05700
C265        C  0.33251063  0.15356224  0.69998161    -0.20100
C266        C  0.31616390  0.12679502  0.68464652    -0.06700
C267        C  0.30599031  0.10551697  0.72471096     0.14200
C268        C  0.31170685  0.11214973  0.77883412    -0.20100
C269        C  0.32744931  0.13933105  0.79448540    -0.06700
C270        C  0.33834242  0.16021704  0.75407429     0.14200
C271        C  0.35623618  0.18959152  0.76669469    -0.23500
H272        H  0.34040993  0.16972370  0.66930203     0.15500
H273        H  0.30373869  0.09583713  0.80920102     0.15500
C274        C  0.28989379  0.07525364  0.71112190    -0.23400
H275        H  0.36296181  0.20260462  0.72987245     0.05700
H276        H  0.37800679  0.18351729  0.78875527     0.09000
H277        H  0.34170975  0.20559156  0.79078309     0.09000
H278        H  0.30448106  0.06146888  0.68344054     0.08900
H279        H  0.26685587  0.08012395  0.69238159     0.08900
H280        H  0.28580813  0.06055416  0.74730742     0.05700
C281        C  0.49416986  0.15986407  0.90468462    -0.20100
C282        C  0.50994422  0.17533389  0.94602236    -0.06700
C283        C  0.49270511  0.19230439  0.98409214     0.14200
C284        C  0.46012381  0.19099805  0.98229038    -0.20100
C285        C  0.44447466  0.17303686  0.94385558    -0.06700
C286        C  0.46170160  0.15846582  0.90295428     0.14200
C287        C  0.44632025  0.14138142  0.85727463    -0.23500
H288        H  0.50740093  0.14768784  0.87454465     0.15500
H289        H  0.44686404  0.20269903  0.01294220     0.15500
C290        C  0.50820707  0.21039967  0.02837351    -0.23400
H291        H  0.46343010  0.13399669  0.82684035     0.05700
H292        H  0.42902764  0.15695319  0.83700320     0.09000
H293        H  0.43475514  0.11988140  0.87219225     0.09000
H294        H  0.52292982  0.22911655  0.01098540     0.08900
H295        H  0.52269073  0.19441312  0.05367912     0.08900
H296        H  0.49096248  0.22176940  0.05476761     0.05700
C297        C  0.65879847  0.09606825  0.73788979    -0.20100
C298        C  0.63918126  0.10786825  0.69680091    -0.06700
C299        C  0.61310957  0.12626109  0.71105864     0.14200
C300        C  0.60820831  0.13309760  0.76520706    -0.20100
C301        C  0.62829415  0.12196281  0.80598500    -0.06700
C302        C  0.65367659  0.10267847  0.79206901     0.14200
C303        C  0.67603933  0.08962853  0.83355528    -0.23500
H304        H  0.67865032  0.08171257  0.72764996     0.15500
H305        H  0.58842442  0.14748687  0.77577087     0.15500
C306        C  0.59033396  0.13909832  0.67003202    -0.23400
H307        H  0.69506528  0.07591638  0.81513892     0.05700
H308        H  0.66357548  0.07373106  0.86135460     0.09000
H309        H  0.68682445  0.10903685  0.85630589     0.09000
H310        H  0.57953843  0.11957948  0.64762220     0.08900
H311        H  0.60240855  0.15517823  0.64197807     0.08900
H312        H  0.57126427  0.15256693  0.68882485     0.05700
C313        C  0.63544237  0.83837898  0.78418061    -0.20100
C314        C  0.61589793  0.81350339  0.79871077    -0.06700
C315        C  0.60244828  0.79522157  0.75717994     0.14200
C316        C  0.60943635  0.80202099  0.70329784    -0.20100
C317        C  0.62964411  0.82633842  0.68903376    -0.06700
C318        C  0.64249526  0.84506560  0.73036095     0.14200
C319        C  0.66322094  0.87265036  0.71855772    -0.23500
H320        H  0.64556852  0.85271796  0.81528753     0.15500
H321        H  0.59946061  0.78772581  0.67196539     0.15500
C322        C  0.58081473  0.76830460  0.76853206    -0.23400
H323        H  0.66927468  0.88574843  0.75536975     0.05700
H324        H  0.65118254  0.88915871  0.69057761     0.09000
H325        H  0.68537182  0.86454880  0.70087678     0.09000
H326        H  0.55998272  0.77682996  0.78996623     0.08900
H327        H  0.59305542  0.75010062  0.79287045     0.08900
H328        H  0.57254012  0.75699985  0.73118759     0.05700
C329        C  0.71010323  0.94324515  0.56571176    -0.20100
C330        C  0.70366100  0.92950223  0.51608787    -0.06700
C331        C  0.70313179  0.94834946  0.46921996     0.14200
C332        C  0.70450653  0.98096801  0.47437178    -0.20100
C333        C  0.70559951  0.99473915  0.52512516    -0.06700
C334        C  0.71071732  0.97575984  0.57101636     0.14200
C335        C  0.71553732  0.98948682  0.62587489    -0.23500
H336        H  0.71160639  0.92855494  0.60134573     0.15500
H337        H  0.70138095  0.99570305  0.43911539     0.15500
C338        C  0.69834522  0.93462223  0.41441806    -0.23400
H339        H  0.72175653  0.97116070  0.65605019     0.05700
H340        H  0.69400903  0.00105872  0.63970548     0.09000
H341        H  0.73478921  0.00671595  0.62469678     0.09000
H342        H  0.67581868  0.92214775  0.41239521     0.08900
H343        H  0.71753954  0.91801617  0.40582802     0.08900
H344        H  0.69812548  0.95296011  0.38256234     0.05700
C345        C  0.20999429  0.24185050  0.49916035    -0.20100
C346        C  0.17919143  0.23258914  0.48894053    -0.06700
C347        C  0.17290165  0.20045308  0.48056347     0.14200
C348        C  0.19735323  0.17879122  0.48305220    -0.20100
C349        C  0.22813067  0.18786166  0.49367397    -0.06700
C350        C  0.23454540  0.22001377  0.50172366     0.14200
C351        C  0.26690269  0.23172141  0.51338519    -0.23500
H352        H  0.21493692  0.26640918  0.50529295     0.15500
H353        H  0.19218296  0.15430827  0.47662512     0.15500
C354        C  0.14074812  0.18842480  0.46767116    -0.23400
H355        H  0.26735104  0.25749448  0.51869982     0.05700
H356        H  0.28243638  0.22610763  0.47955599     0.09000
H357        H  0.27599212  0.22077315  0.55093282     0.09000
H358        H  0.13158828  0.20010643  0.43081469     0.08900
H359        H  0.12497831  0.19273591  0.50174991     0.08900
H360        H  0.14070237  0.16282260  0.46041591     0.05700
C361        C  0.74989051  0.21795595  0.50258842    -0.20100
C362        C  0.78157139  0.20987106  0.50383589    -0.06700
C363        C  0.79001171  0.17783983  0.50917783     0.14200
C364        C  0.76661111  0.15520089  0.51369804    -0.20100
C365        C  0.73488605  0.16328609  0.51236208    -0.06700
C366        C  0.72648357  0.19527781  0.50629903     0.14200
C367        C  0.69308007  0.20609384  0.50320585    -0.23500
H368        H  0.74325020  0.24233787  0.49791802     0.15500
H369        H  0.77330066  0.13083805  0.51819338     0.15500
C370        C  0.82344156  0.16694704  0.51053824    -0.23400
H371        H  0.69115202  0.23186011  0.49759353     0.05700
H372        H  0.68098980  0.19998750  0.54094746     0.09000
H373        H  0.68118172  0.19506856  0.46861551     0.09000
H374        H  0.83609991  0.17827810  0.54406044     0.08900
H375        H  0.83475463  0.17264640  0.47193146     0.08900
H376        H  0.82541611  0.14122376  0.51664785     0.05700
C377        C  0.96354711  0.25412131  0.50181878    -0.20100
C378        C  0.94649771  0.26507187  0.45719629    -0.06700
C379        C  0.96228776  0.27396374  0.41009958     0.14200
C380        C  0.99476959  0.27469594  0.41089965    -0.20100
C381        C  0.01181199  0.26735504  0.45764807    -0.06700
C382        C  0.99611166  0.25539453  0.50293978     0.14200
C383        C  0.01307613  0.24585935  0.55367488    -0.23500
H384        H  0.95130433  0.24671594  0.53749035     0.15500
H385        H  0.00688232  0.28283059  0.37554918     0.15500
C386        C  0.94527152  0.28314105  0.35909531    -0.23400
H387        H  0.99687337  0.23735607  0.58493297     0.05700
H388        H  0.02583096  0.26616347  0.57027066     0.09000
H389        H  0.02963065  0.22658403  0.54518658     0.09000
H390        H  0.93260113  0.30552796  0.36428860     0.08900
H391        H  0.92866764  0.26444422  0.34776582     0.08900
H392        H  0.96151890  0.28656902  0.32525111     0.05700
C393        C  0.70759345  0.21750036  0.00383714    -0.20100
C394        C  0.67645776  0.22673005  0.99637738    -0.06700
C395        C  0.66900612  0.25909802  0.99644986     0.14200
C396        C  0.69282994  0.28098607  0.00371735    -0.20100
C397        C  0.72403686  0.27178367  0.01066284    -0.06700
C398        C  0.73147172  0.23941701  0.01066165     0.14200
C399        C  0.76429610  0.22740292  0.01780331    -0.23500
H400        H  0.71346149  0.19280826  0.00365827     0.15500
H401        H  0.68688620  0.30564738  0.00381180     0.15500
C402        C  0.63614949  0.27113529  0.98959421    -0.23400
H403        H  0.76546090  0.20143348  0.01687032     0.05700
H404        H  0.77381478  0.23483710  0.05713228     0.09000
H405        H  0.77907020  0.23637904  0.98490796     0.09000
H406        H  0.62111888  0.26093751  0.02112980     0.08900
H407        H  0.62702568  0.26504185  0.94932663     0.08900
H408        H  0.63480396  0.29700304  0.99296641     0.05700
C409        C  0.79745615  0.33702556  0.24461747    -0.20100
C410        C  0.81813838  0.32586723  0.20566758    -0.06700
C411        C  0.84496357  0.30902625  0.22279420     0.14200
C412        C  0.84975316  0.30324629  0.27770777    -0.20100
C413        C  0.82872962  0.31389398  0.31623201    -0.06700
C414        C  0.80236551  0.33128405  0.29949372     0.14200
C415        C  0.77862652  0.34271517  0.33883912    -0.23500
H416        H  0.77695840  0.35012157  0.23212743     0.15500
H417        H  0.87009690  0.29004698  0.29074791     0.15500
C418        C  0.86842516  0.29642271  0.18400490    -0.23400
H419        H  0.75874473  0.35466932  0.31841906     0.05700
H420        H  0.78946869  0.35974459  0.36651730     0.09000
H421        H  0.76929204  0.32262763  0.36209919     0.09000
H422        H  0.87906110  0.31601096  0.16121039     0.08900
H423        H  0.85696419  0.27993255  0.15606438     0.08900
H424        H  0.88756227  0.28350215  0.20481710     0.05700
C425        C  0.70158940  0.73010288  0.98016554    -0.20100
C426        C  0.67055502  0.72081655  0.98696506    -0.06700
C427        C  0.66409121  0.68864614  0.99558522     0.14200
C428        C  0.68884276  0.66720492  0.99911246    -0.20100
C429        C  0.71994425  0.67663690  0.99337349    -0.06700
C430        C  0.72626965  0.70857906  0.98261734     0.14200
C431        C  0.75871800  0.72043387  0.97276271    -0.23500
H432        H  0.70670368  0.75453797  0.97235924     0.15500
H433        H  0.68373441  0.64277232  0.00682996     0.15500
C434        C  0.63143337  0.67639068  0.00145767    -0.23400
H435        H  0.75886461  0.74578542  0.96239540     0.05700
H436        H  0.76915216  0.70772815  0.93878883     0.09000
H437        H  0.77329046  0.71723519  0.00936901     0.09000
H438        H  0.61790641  0.68101864  0.96412545     0.08900
H439        H  0.61996916  0.68772404  0.03591961     0.08900
H440        H  0.63109117  0.65071370  0.00883624     0.05700
C441        C  0.78337183  0.49381605  0.09049435    -0.20100
C442        C  0.76929288  0.50812288  0.04558741    -0.06700
C443        C  0.75336631  0.48963835  0.00765397     0.14200
C444        C  0.75380487  0.45702776  0.01398842    -0.20100
C445        C  0.77063223  0.44273317  0.05602764    -0.06700
C446        C  0.78459296  0.46129927  0.09598150     0.14200
C447        C  0.80112915  0.44715982  0.14409118    -0.23500
H448        H  0.79491160  0.50816223  0.12016625     0.15500
H449        H  0.74302783  0.44256943  0.98365057     0.15500
C450        C  0.73795787  0.50374165  0.95852899    -0.23400
H451        H  0.80841403  0.46533118  0.17305203     0.05700
H452        H  0.82244644  0.43462618  0.13168487     0.09000
H453        H  0.78537995  0.43069092  0.16516694     0.09000
H454        H  0.75532124  0.51682605  0.93460973     0.08900
H455        H  0.71894318  0.51977400  0.97054212     0.08900
H456        H  0.72763391  0.48555634  0.93241711     0.05700
C457        C  0.25783548  0.28200559  0.99214004    -0.20100
C458        C  0.22715834  0.27247675  0.00205556    -0.06700
C459        C  0.22114258  0.24008628  0.00942648     0.14200
C460        C  0.24557822  0.21843902  0.00451334    -0.20100
C461        C  0.27605752  0.22794629  0.99315492    -0.06700
C462        C  0.28231913  0.26038993  0.98786473     0.14200
C463        C  0.31443848  0.27275434  0.97664053    -0.23500
H464        H  0.26281078  0.30670710  0.98729923     0.15500
H465        H  0.24071282  0.19371203  0.00940390     0.15500
C466        C  0.18925574  0.22775400  0.02244413    -0.23400
H467        H  0.31466723  0.29868364  0.97293630     0.05700
H468        H  0.32304829  0.26317251  0.93835417     0.09000
H469        H  0.33052147  0.26620597  0.00996979     0.09000
H470        H  0.17268022  0.23374347  0.98950387     0.08900
H471        H  0.18115110  0.23784319  0.06065313     0.08900
H472        H  0.18921461  0.20188315  0.02732865     0.05700
C473        C  0.14581760  0.35285185  0.22160854    -0.20100
C474        C  0.13060863  0.33357566  0.18427295    -0.06700
C475        C  0.11046859  0.30994139  0.20355491     0.14200
C476        C  0.10683903  0.30590780  0.25902686    -0.20100
C477        C  0.12270976  0.32463492  0.29636419    -0.06700
C478        C  0.14227462  0.34871186  0.27711085     0.14200
C479        C  0.16025163  0.36967136  0.31432524    -0.23500
H480        H  0.16113590  0.37113698  0.20733871     0.15500
H481        H  0.09152467  0.28763157  0.27331381     0.15500
C482        C  0.09312453  0.28830122  0.16655653    -0.23400
H483        H  0.17505115  0.38652438  0.29208587     0.05700
H484        H  0.17576134  0.35534644  0.34067862     0.09000
H485        H  0.14393592  0.38350101  0.33892639     0.09000
H486        H  0.10985477  0.27478359  0.14225628     0.08900
H487        H  0.07725720  0.30205982  0.13994866     0.08900
H488        H  0.07870718  0.27117695  0.18892968     0.05700
C489        C  0.27494400  0.69750514  0.01713175    -0.20100
C490        C  0.26562227  0.72901037  0.01323206    -0.06700
C491        C  0.23335747  0.73607329  0.01308026     0.14200
C492        C  0.21168935  0.71154445  0.01650549    -0.20100
C493        C  0.22107516  0.67999665  0.01981173    -0.06700
C494        C  0.25339682  0.67301282  0.02008865     0.14200
C495        C  0.26588184  0.63995783  0.02291851    -0.23500
H496        H  0.29950916  0.69178812  0.01729453     0.15500
H497        H  0.18709909  0.71716461  0.01647879     0.15500
C498        C  0.22126376  0.76917811  0.00880164    -0.23400
H499        H  0.29168349  0.63921572  0.02161436     0.05700
H500        H  0.25708705  0.62642568  0.98826425     0.09000
H501        H  0.25885815  0.62856432  0.06105704     0.09000
H502        H  0.22889146  0.78004505  0.97059186     0.08900
H503        H  0.22990978  0.78301902  0.04320270     0.08900
H504        H  0.19544794  0.77012792  0.00928422     0.05700
C505        C  0.15761643  0.49589829  0.97932368    -0.20100
C506        C  0.17430619  0.50972911  0.02121343    -0.06700
C507        C  0.19357639  0.49117580  0.05489418     0.14200
C508        C  0.19373778  0.45855038  0.04828410    -0.20100
C509        C  0.17478147  0.44456461  0.00925990    -0.06700
C510        C  0.15767903  0.46350959  0.97270957     0.14200
C511        C  0.13936751  0.44976090  0.92678708    -0.23500
H512        H  0.14345329  0.51050266  0.95283929     0.15500
H513        H  0.20701955  0.44384067  0.07584302     0.15500
C514        C  0.21222464  0.50545203  0.09968905    -0.23400
H515        H  0.12989497  0.46825703  0.89964132     0.05700
H516        H  0.11942111  0.43599393  0.94187549     0.09000
H517        H  0.15469181  0.43447360  0.90278089     0.09000
H518        H  0.19648164  0.51782511  0.12746544     0.08900
H519        H  0.22919586  0.52234152  0.08296218     0.08900
H520        H  0.22536518  0.48741781  0.12304258     0.05700
C521        C  0.20308165  0.72362111  0.51239522    -0.20100
C522        C  0.17163523  0.73229820  0.50692213    -0.06700
C523        C  0.16376766  0.76459081  0.50790336     0.14200
C524        C  0.18743112  0.78686588  0.51375857    -0.20100
C525        C  0.21890045  0.77820756  0.51886170    -0.06700
C526        C  0.22674296  0.74592987  0.51843554     0.14200
C527        C  0.25978594  0.73441931  0.52470108    -0.23500
H528        H  0.20933891  0.69903454  0.51195998     0.15500
H529        H  0.18114200  0.81143906  0.51425453     0.15500
C530        C  0.13068782  0.77622341  0.50263369    -0.23400
H531        H  0.26129969  0.70846950  0.52417151     0.05700
H532        H  0.26960905  0.74224211  0.56358073     0.09000
H533        H  0.27408388  0.74342956  0.49118599     0.09000
H534        H  0.11657644  0.76683373  0.53608466     0.08900
H535        H  0.12061171  0.76893968  0.46362005     0.08900
H536        H  0.12919344  0.80215263  0.50413624     0.05700
C537        C  0.14306599  0.61375550  0.30359361    -0.20100
C538        C  0.11678621  0.63108505  0.31782517    -0.06700
C539        C  0.09507409  0.64021678  0.27742707     0.14200
C540        C  0.10135908  0.63349090  0.22372326    -0.20100
C541        C  0.12851007  0.61755435  0.20894975    -0.06700
C542        C  0.14934098  0.60686346  0.24992389     0.14200
C543        C  0.17867975  0.58881786  0.23816911    -0.23500
H544        H  0.15938019  0.60635542  0.33463181     0.15500
H545        H  0.08496381  0.64106314  0.19294434     0.15500
C546        C  0.06481436  0.65637192  0.29031767    -0.23400
H547        H  0.19193602  0.58270542  0.27525326     0.05700
H548        H  0.19418385  0.60311905  0.21249747     0.09000
H549        H  0.17280389  0.56653684  0.21804503     0.09000
H550        H  0.06929492  0.68008562  0.30622886     0.08900
H551        H  0.05180045  0.64225324  0.32010226     0.08900
H552        H  0.04970276  0.65931298  0.25425439     0.05700
C553        C  0.73929878  0.71025799  0.48656304    -0.20100
C554        C  0.77080052  0.71890201  0.49024487    -0.06700
C555        C  0.77809672  0.75096728  0.49731327     0.14200
C556        C  0.75400578  0.77304615  0.50016179    -0.20100
C557        C  0.72253363  0.76456648  0.49622929    -0.06700
C558        C  0.71512246  0.73254495  0.48919144     0.14200
C559        C  0.68201722  0.72145554  0.48402130    -0.23500
H560        H  0.73346990  0.68586716  0.48087506     0.15500
H561        H  0.76002941  0.79740098  0.50573651     0.15500
C562        C  0.81108599  0.76260588  0.50239226    -0.23400
H563        H  0.68073537  0.69576713  0.47800217     0.05700
H564        H  0.67058958  0.73300934  0.44897556     0.09000
H565        H  0.66907783  0.72686428  0.52106148     0.09000
H566        H  0.82383969  0.75827706  0.46476496     0.08900
H567        H  0.82298981  0.75071995  0.53667240     0.08900
H568        H  0.81205152  0.78818729  0.50971838     0.05700
C569        C  0.84991420  0.62759796  0.26422329    -0.20100
C570        C  0.82463024  0.62842962  0.29933141    -0.06700
C571        C  0.79411373  0.62671424  0.27854209     0.14200
C572        C  0.78964826  0.62382285  0.22318700    -0.20100
C573        C  0.81484973  0.62267192  0.18767640    -0.06700
C574        C  0.84552049  0.62441195  0.20871475     0.14200
C575        C  0.87375805  0.62229637  0.17364188    -0.23500
H576        H  0.87331203  0.62924523  0.28049983     0.15500
H577        H  0.76607813  0.62268285  0.20755973     0.15500
C578        C  0.76613455  0.62926262  0.31415996    -0.23400
H579        H  0.89570687  0.62313646  0.19739992     0.05700
H580        H  0.87400011  0.64226751  0.14485395     0.09000
H581        H  0.87353437  0.59987094  0.15160893     0.09000
H582        H  0.76696476  0.65158530  0.33647027     0.08900
H583        H  0.76576069  0.60928611  0.34291581     0.08900
H584        H  0.74402731  0.62887026  0.29079659     0.05700
C585        C  0.99033016  0.66954998  0.41268764    -0.20100
C586        C  0.00456263  0.67902885  0.46065468    -0.06700
C587        C  0.98595567  0.69024032  0.50275715     0.14200
C588        C  0.95350891  0.68891793  0.49755668    -0.20100
C589        C  0.93939907  0.67635565  0.45178315    -0.06700
C590        C  0.95790542  0.66825704  0.40752428     0.14200
C591        C  0.94372982  0.65835483  0.35486693    -0.23500
H592        H  0.00467909  0.66196088  0.37979587     0.15500
H593        H  0.93915203  0.69560463  0.53104011     0.15500
C594        C  0.99992597  0.70149761  0.55465179    -0.23400
H595        H  0.96168886  0.65532982  0.32366300     0.05700
H596        H  0.92703507  0.67649457  0.34036204     0.09000
H597        H  0.93157861  0.63565191  0.35940676     0.09000
H598        H  0.01470591  0.72225853  0.54693098     0.08900
H599        H  0.01410786  0.68256576  0.57362666     0.08900
H600        H  0.98177073  0.70847177  0.58358801     0.05700
C601        C  0.56886653  0.91342188  0.33346149    -0.20100
C602        C  0.55839255  0.89233809  0.29374293    -0.06700
C603        C  0.56143977  0.85962497  0.30785911     0.14200
C604        C  0.57868790  0.85026556  0.35381273    -0.20100
C605        C  0.59092856  0.87177843  0.39011086    -0.06700
C606        C  0.58482559  0.90391810  0.38048867     0.14200
C607        C  0.59514660  0.92876449  0.41924288    -0.23500
H608        H  0.56346246  0.93782349  0.32968623     0.15500
H609        H  0.58215134  0.82554917  0.36220734     0.15500
C610        C  0.54627940  0.83357613  0.27684711    -0.23400
H611        H  0.58900566  0.95270447  0.40495632     0.05700
H612        H  0.62076150  0.92790776  0.42457622     0.09000
H613        H  0.58366963  0.92510271  0.45839835     0.09000
H614        H  0.55529830  0.83210402  0.23586327     0.08900
H615        H  0.52074011  0.83643683  0.27702811     0.08900
H616        H  0.55092662  0.81025614  0.29536789     0.05700
C617        C  0.56264085  0.88007787  0.09188684    -0.20100
C618        C  0.58733518  0.85946816  0.10090862    -0.06700
C619        C  0.60107855  0.85850227  0.15229700     0.14200
C620        C  0.58749299  0.87559632  0.19415800    -0.20100
C621        C  0.55853737  0.89172492  0.18834950    -0.06700
C622        C  0.54870571  0.89691927  0.13350425     0.14200
C623        C  0.52407679  0.91973302  0.11530094    -0.23500
H624        H  0.55320377  0.88211632  0.05156099     0.15500
H625        H  0.59968791  0.87521580  0.23210968     0.15500
C626        C  0.63041831  0.84001274  0.16315396    -0.23400
H627        H  0.52263348  0.92192952  0.07097874     0.05700
H628        H  0.52978615  0.94351940  0.12891243     0.09000
H629        H  0.50103852  0.91132376  0.12694263     0.09000
H630        H  0.64883890  0.84767342  0.13515105     0.08900
H631        H  0.62599983  0.81465369  0.15808341     0.08900
H632        H  0.63920334  0.84335269  0.20466654     0.05700
C633        C  0.59282173  0.07557105  0.30136594    -0.20100
C634        C  0.56804055  0.05367036  0.30364063    -0.06700
C635        C  0.56469689  0.03767151  0.35411449     0.14200
C636        C  0.58178118  0.04766888  0.39953470    -0.20100
C637        C  0.60417080  0.07149241  0.39659964    -0.06700
C638        C  0.60996971  0.08519605  0.34603076     0.14200
C639        C  0.63470699  0.10976419  0.33736164    -0.23500
H640        H  0.60055740  0.08506229  0.26390124     0.15500
H641        H  0.57867050  0.03553766  0.43742803     0.15500
C642        C  0.54621393  0.00794247  0.36100318    -0.23400
H643        H  0.63531693  0.11841488  0.29528667     0.05700
H644        H  0.65803678  0.09981329  0.34671339     0.09000
H645        H  0.63000977  0.13036585  0.36282564     0.09000
H646        H  0.55989563  0.98839856  0.34495674     0.08900
H647        H  0.52342795  0.00861582  0.34047511     0.08900
H648        H  0.54187470  0.00246963  0.40385128     0.05700
C649        C  0.57409467  0.04845783  0.15668489    -0.20100
C650        C  0.56205570  0.06471864  0.20139576    -0.06700
C651        C  0.56066493  0.09828308  0.19655610     0.14200
C652        C  0.57222842  0.11332250  0.15090807    -0.20100
C653        C  0.58513976  0.09692178  0.10820445    -0.06700
C654        C  0.58597019  0.06389767  0.11120531     0.14200
C655        C  0.59848522  0.04444220  0.06614635    -0.23500
H656        H  0.57392086  0.02330532  0.15557859     0.15500
H657        H  0.57093394  0.13866252  0.14887947     0.15500
C658        C  0.54740164  0.11993273  0.23828995    -0.23400
H659        H  0.59697185  0.01895739  0.07491215     0.05700
H660        H  0.62336096  0.05001431  0.05968110     0.09000
H661        H  0.58488738  0.04919748  0.02890585     0.09000
H662        H  0.54021344  0.10828418  0.27564775     0.08900
H663        H  0.52689447  0.13251230  0.22120653     0.08900
H664        H  0.56523624  0.13743132  0.24979980     0.05700
C665        C  0.57282275  0.95706242  0.23728258    -0.20100
C666        C  0.54351881  0.94202317  0.23376875    -0.06700
C667        C  0.51775191  0.96282946  0.22436967     0.14200
C668        C  0.52080368  0.99484485  0.23120377    -0.20100
C669        C  0.54885801  0.00999842  0.24172781    -0.06700
C670        C  0.57595991  0.99014901  0.24173158     0.14200
C671        C  0.60870220  0.00223121  0.24649444    -0.23500
H672        H  0.59355971  0.94265370  0.23960496     0.15500
H673        H  0.49976822  0.00773636  0.22597623     0.15500
C674        C  0.48602022  0.95560860  0.20233786    -0.23400
H675        H  0.61917948  0.99417845  0.28506695     0.05700
H676        H  0.61025822  0.02789879  0.24378099     0.09000
H677        H  0.62277738  0.99297605  0.21311052     0.09000
H678        H  0.46890820  0.96344276  0.23200293     0.08900
H679        H  0.48038379  0.93199864  0.19166090     0.08900
H680        H  0.48303995  0.96876580  0.16426174     0.05700
C681        C  0.34103134  0.07004279  0.34498615    -0.20100
C682        C  0.35637263  0.08714068  0.38443758    -0.06700
C683        C  0.38844265  0.09274390  0.37867235     0.14200
C684        C  0.40416021  0.08086124  0.33378948    -0.20100
C685        C  0.38918755  0.06275885  0.29353331    -0.06700
C686        C  0.35611575  0.05845194  0.29982968     0.14200
C687        C  0.33499235  0.04261428  0.25955680    -0.23500
H688        H  0.31630556  0.06594654  0.34918904     0.15500
H689        H  0.42791394  0.08803118  0.32922849     0.15500
C690        C  0.40610978  0.11229129  0.41846886    -0.23400
H691        H  0.33037578  0.05866767  0.22535720     0.05700
H692        H  0.31177091  0.03729769  0.27639451     0.09000
H693        H  0.34418768  0.01987545  0.24624216     0.09000
H694        H  0.40613694  0.10061601  0.45837733     0.08900
H695        H  0.39514280  0.13576873  0.42127414     0.08900
H696        H  0.43073474  0.11560211  0.40672637     0.05700
C697        C  0.37286603  0.04964060  0.15711976    -0.20100
C698        C  0.39077928  0.06585931  0.19585127    -0.06700
C699        C  0.39064301  0.09947413  0.19122966     0.14200
C700        C  0.37712478  0.11409576  0.14630407    -0.20100
C701        C  0.36260493  0.09739538  0.10532099    -0.06700
C702        C  0.35935029  0.06471029  0.11187714     0.14200
C703        C  0.34107199  0.04558483  0.07235295    -0.23500
H704        H  0.36851584  0.02496588  0.16250371     0.15500
H705        H  0.37862191  0.13932948  0.14278620     0.15500
C706        C  0.40540600  0.12134757  0.23142973    -0.23400
H707        H  0.33943096  0.02068741  0.08522867     0.05700
H708        H  0.35256862  0.04613008  0.03276238     0.09000
H709        H  0.31708804  0.05506609  0.06843531     0.09000
H710        H  0.42896552  0.11362825  0.24375317     0.08900
H711        H  0.38994831  0.12404163  0.26623753     0.08900
H712        H  0.40837357  0.14534855  0.21479855     0.05700
C713        C  0.46095261  0.04684714  0.29211778    -0.20100
C714        C  0.44410646  0.05458863  0.24462081    -0.06700
C715        C  0.46311443  0.06538837  0.20060613     0.14200
C716        C  0.49591561  0.06451008  0.20565871    -0.20100
C717        C  0.51228829  0.05842780  0.25451742    -0.06700
C718        C  0.49255134  0.05501792  0.29960552     0.14200
C719        C  0.50063352  0.06804923  0.35381492    -0.23500
H720        H  0.44837628  0.03845703  0.32672931     0.15500
H721        H  0.50881055  0.06728761  0.16917337     0.15500
C722        C  0.45145473  0.07633524  0.14585819    -0.23400
H723        H  0.48285765  0.08572417  0.36475892     0.05700
H724        H  0.52286548  0.08088189  0.35407439     0.09000
H725        H  0.50038309  0.04953200  0.38522891     0.09000
H726        H  0.44305755  0.10073948  0.14782274     0.08900
H727        H  0.43387403  0.06082500  0.12826792     0.08900
H728        H  0.47021457  0.07714777  0.11565062     0.05700
C729        C  0.35251192  0.89251386  0.31382211    -0.20100
C730        C  0.38545761  0.89116913  0.31762371    -0.06700
C731        C  0.39795426  0.87549046  0.36477663     0.14200
C732        C  0.37782966  0.86750610  0.40712078    -0.20100
C733        C  0.34543246  0.87047561  0.40290867    -0.06700
C734        C  0.33265053  0.88233118  0.35442907     0.14200
C735        C  0.29805439  0.88543295  0.34469377    -0.23500
H736        H  0.34183528  0.90313524  0.27859716     0.15500
H737        H  0.38767532  0.85731123  0.44349940     0.15500
C738        C  0.43077975  0.86341461  0.37330233    -0.23400
H739        H  0.29249386  0.89495985  0.30414463     0.05700
H740        H  0.28780515  0.90172272  0.37410375     0.09000
H741        H  0.28691839  0.86210496  0.34776978     0.09000
H742        H  0.44324927  0.87807685  0.40284920     0.08900
H743        H  0.44455071  0.86050837  0.33713138     0.08900
H744        H  0.42995016  0.83924476  0.39013385     0.05700
C745        C  0.36948749  0.90309711  0.17803440    -0.20100
C746        C  0.38655709  0.88677498  0.21873570    -0.06700
C747        C  0.38601588  0.85310044  0.21570901     0.14200
C748        C  0.37351854  0.83858434  0.17036644    -0.20100
C749        C  0.35985963  0.85540700  0.12787894    -0.06700
C750        C  0.35716952  0.88819562  0.13243028     0.14200
C751        C  0.34111481  0.90781897  0.08986266    -0.23500
H752        H  0.36484805  0.92777280  0.18139084     0.15500
H753        H  0.37468309  0.81330002  0.16806726     0.15500
C754        C  0.39831666  0.83110598  0.25902275    -0.23400
H755        H  0.34013726  0.93293955  0.10079333     0.05700
H756        H  0.31687443  0.89958944  0.08404353     0.09000
H757        H  0.35395402  0.90621995  0.05167097     0.09000
H758        H  0.38352842  0.83213366  0.29489507     0.08900
H759        H  0.42280261  0.83581949  0.26897992     0.08900
H760        H  0.39773970  0.80623873  0.24655499     0.05700
C761        C  0.45355335  0.88093994  0.22487541    -0.20100
C762        C  0.43940406  0.89915455  0.26576796    -0.06700
C763        C  0.46071150  0.91388632  0.30185290     0.14200
C764        C  0.49295462  0.91099134  0.29469545    -0.20100
C765        C  0.50667135  0.89572266  0.25058590    -0.06700
C766        C  0.48606868  0.87710260  0.21903547     0.14200
C767        C  0.49569456  0.85301983  0.17850674    -0.23500
H768        H  0.43968391  0.86966081  0.19475101     0.15500
H769        H  0.50769524  0.92431039  0.32133739     0.15500
C770        C  0.45131583  0.93485821  0.34702221    -0.23400
H771        H  0.48697419  0.85968363  0.13798975     0.05700
H772        H  0.48509476  0.83019832  0.18943456     0.09000
H773        H  0.52074389  0.84870796  0.17653550     0.09000
H774        H  0.46555606  0.92950501  0.38336924     0.08900
H775        H  0.42722029  0.93138993  0.35884010     0.08900
H776        H  0.45511537  0.95970614  0.33549103     0.05700
C777        C  0.41133697  0.95638267  0.21462916    -0.20100
C778        C  0.39871762  0.94220600  0.26112438    -0.06700
C779        C  0.38748701  0.96405158  0.30019244     0.14200
C780        C  0.39374608  0.99633204  0.29406772    -0.20100
C781        C  0.40420975  0.01085931  0.24616170    -0.06700
C782        C  0.41360336  0.98926681  0.20559111     0.14200
C783        C  0.42862402  0.99900269  0.15355180    -0.23500
H784        H  0.42050537  0.94089050  0.18452358     0.15500
H785        H  0.38966479  0.01040603  0.32879153     0.15500
C786        C  0.36779840  0.95617150  0.34863752    -0.23400
H787        H  0.43480146  0.97853278  0.12875501     0.05700
H788        H  0.45046131  0.01153023  0.16164660     0.09000
H789        H  0.41329989  0.01279587  0.12703620     0.09000
H790        H  0.37861093  0.93885640  0.37615651     0.08900
H791        H  0.34437882  0.94890285  0.33514387     0.08900
H792        H  0.36325413  0.97679381  0.37413928     0.05700
C793        C  0.10970322  0.57434253  0.85827893    -0.20100
C794        C  0.09275633  0.58820613  0.89931636    -0.06700
C795        C  0.05996976  0.58831247  0.89522170     0.14200
C796        C  0.04526246  0.57422142  0.85082737    -0.20100
C797        C  0.06205231  0.55848702  0.81028367    -0.06700
C798        C  0.09541874  0.55909330  0.81523211     0.14200
C799        C  0.11774959  0.54264232  0.77834911    -0.23500
H800        H  0.13488282  0.57390096  0.86100489     0.15500
H801        H  0.02048322  0.57728571  0.84735534     0.15500
C802        C  0.04016944  0.60422911  0.93634725    -0.23400
H803        H  0.13517246  0.52913664  0.80238673     0.05700
H804        H  0.13023390  0.56021156  0.75363194     0.09000
H805        H  0.10683635  0.52529575  0.75227724     0.09000
H806        H  0.04725863  0.62906888  0.94011166     0.08900
H807        H  0.04271929  0.59207098  0.97563807     0.08900
H808        H  0.01510271  0.60384418  0.92524859     0.05700
C809        C  0.07261563  0.61335500  0.66579709    -0.20100
C810        C  0.08648745  0.59796982  0.62291933    -0.06700
C811        C  0.08968258  0.56508926  0.62602383     0.14200
C812        C  0.07763698  0.54870104  0.67047940    -0.20100
C813        C  0.06087123  0.56369136  0.71200014    -0.06700
C814        C  0.05985112  0.59729834  0.70957037     0.14200
C815        C  0.04378402  0.61744991  0.75045300    -0.23500
H816        H  0.07076070  0.63864478  0.66448667     0.15500
H817        H  0.08159656  0.52382483  0.67162330     0.15500
C818        C  0.10559908  0.54682369  0.58275550    -0.23400
H819        H  0.03970868  0.64167146  0.73532519     0.05700
H820        H  0.05877617  0.61979985  0.78644537     0.09000
H821        H  0.02058930  0.60820550  0.76072079     0.09000
H822        H  0.12972837  0.55541769  0.57768797     0.08900
H823        H  0.09246415  0.54937394  0.54447382     0.08900
H824        H  0.10691400  0.52142715  0.59250495     0.05700
C825        C  0.87587947  0.54041527  0.65786809    -0.20100
C826        C  0.89093878  0.55695623  0.70003084    -0.06700
C827        C  0.89441580  0.59016566  0.69195095     0.14200
C828        C  0.88316428  0.60451022  0.64488785    -0.20100
C829        C  0.86788036  0.58801251  0.60438761    -0.06700
C830        C  0.86454634  0.55532634  0.61076476     0.14200
C831        C  0.84832959  0.53594857  0.56895173    -0.23500
H832        H  0.87095886  0.51584667  0.66209341     0.15500
H833        H  0.88606833  0.62955970  0.64011546     0.15500
C834        C  0.90869457  0.61209635  0.73260517    -0.23400
H835        H  0.84699205  0.51090073  0.58096424     0.05700
H836        H  0.86125756  0.53724021  0.53075522     0.09000
H837        H  0.82421084  0.54469744  0.56260802     0.09000
H838        H  0.93097185  0.60327038  0.74919182     0.08900
H839        H  0.89190833  0.61671159  0.76491171     0.08900
H840        H  0.91404654  0.63534138  0.71472900     0.05700
C841        C  0.89890412  0.57422816  0.83947121    -0.20100
C842        C  0.88357776  0.55788449  0.79782588    -0.06700
C843        C  0.85020982  0.56080098  0.79602697     0.14200
C844        C  0.83447685  0.57446040  0.83884578    -0.20100
C845        C  0.85007544  0.58665984  0.88335859    -0.06700
C846        C  0.88291083  0.58756489  0.88264184     0.14200
C847        C  0.90152571  0.60257724  0.92682575    -0.23500
H848        H  0.92365659  0.57759635  0.83818147     0.15500
H849        H  0.80928908  0.57505821  0.83775708     0.15500
C850        C  0.82982137  0.54920673  0.75059752    -0.23400
H851        H  0.92686467  0.60225826  0.91854147     0.05700
H852        H  0.89803103  0.58965980  0.96504734     0.09000
H853        H  0.89426559  0.62737440  0.93116258     0.09000
H854        H  0.83618515  0.52517545  0.73872800     0.08900
H855        H  0.83108447  0.56560997  0.71605867     0.08900
H856        H  0.80490062  0.54833489  0.76174488     0.05700
C857        C  0.95670959  0.55211307  0.71264119    -0.20100
C858        C  0.93969932  0.54283603  0.75844119    -0.06700
C859        C  0.95875063  0.53335887  0.80339136     0.14200
C860        C  0.99157960  0.53518744  0.80105015    -0.20100
C861        C  0.00823591  0.54795884  0.75742877    -0.06700
C862        C  0.98927200  0.55612981  0.71121446     0.14200
C863        C  0.00106124  0.56842124  0.65781110    -0.23500
H864        H  0.94446344  0.55607399  0.67539183     0.15500
H865        H  0.00468501  0.52600197  0.83489783     0.15500
C866        C  0.94643400  0.52141461  0.85597921    -0.23400
H867        H  0.98256118  0.57001261  0.62655056     0.05700
H868        H  0.01875739  0.55306734  0.64012224     0.09000
H869        H  0.00914542  0.59274735  0.66170806     0.09000
H870        H  0.92185048  0.51530916  0.85353481     0.08900
H871        H  0.95003164  0.53925557  0.88738864     0.08900
H872        H  0.95940149  0.50029059  0.86956925     0.05700
C873        C  0.06950747  0.37649509  0.88877522    -0.20100
C874        C  0.09431352  0.35656359  0.87801106    -0.06700
C875        C  0.09932271  0.34775818  0.82470915     0.14200
C876        C  0.08076495  0.36101149  0.78347532    -0.20100
C877        C  0.05846060  0.38518323  0.79236311    -0.06700
C878        C  0.05113336  0.39030104  0.84797890     0.14200
C879        C  0.02401052  0.40929535  0.86763904    -0.23500
H880        H  0.06497859  0.38212250  0.93022657     0.15500
H881        H  0.08476987  0.35233493  0.74381827     0.15500
C882        C  0.12391937  0.32401113  0.81094868    -0.23400
H883        H  0.02354742  0.41093327  0.91198687     0.05700
H884        H  0.00215227  0.39736160  0.85666142     0.09000
H885        H  0.02478332  0.43370678  0.85316381     0.09000
H886        H  0.11993907  0.30198540  0.83380266     0.08900
H887        H  0.14733991  0.33322991  0.82074477     0.08900
H888        H  0.12360692  0.31838131  0.76762580     0.05700
C889        C  0.10077159  0.37958566  0.62912892    -0.20100
C890        C  0.08092742  0.36469098  0.59296339    -0.06700
C891        C  0.04864631  0.36590350  0.60119360     0.14200
C892        C  0.03715527  0.37961962  0.64767397    -0.20100
C893        C  0.05675700  0.39237560  0.68782384    -0.06700
C894        C  0.08915707  0.39507336  0.67445009     0.14200
C895        C  0.11204010  0.41450147  0.70621439    -0.23500
H896        H  0.12548702  0.37969283  0.62106937     0.15500
H897        H  0.01229894  0.38089098  0.65088377     0.15500
C898        C  0.02602156  0.35170942  0.56176906    -0.23400
H899        H  0.13614250  0.41177794  0.69136742     0.05700
H900        H  0.11258428  0.40800647  0.74914053     0.09000
H901        H  0.10612217  0.43966270  0.70168469     0.09000
H902        H  0.03131111  0.32645001  0.55680520     0.08900
H903        H  0.02772994  0.36388396  0.52246003     0.08900
H904        H  0.00156821  0.35374841  0.57523871     0.05700
C905        C  0.06527611  0.45450262  0.78630432    -0.20100
C906        C  0.05012367  0.44028852  0.74273170    -0.06700
C907        C  0.03784013  0.46105770  0.70230389     0.14200
C908        C  0.03812224  0.49341665  0.71019430    -0.20100
C909        C  0.05024984  0.50782303  0.75628745    -0.06700
C910        C  0.06252898  0.48680637  0.79696603     0.14200
C911        C  0.06940246  0.49545765  0.85453672    -0.23500
H912        H  0.07732468  0.44008520  0.81552402     0.15500
H913        H  0.02790817  0.50799821  0.67938142     0.15500
C914        C  0.02341965  0.45032978  0.65026070    -0.23400
H915        H  0.07006919  0.47448569  0.88123080     0.05700
H916        H  0.05085077  0.51034240  0.87115692     0.09000
H917        H  0.09255480  0.50614384  0.85882704     0.09000
H918        H  0.01291971  0.46988283  0.62656255     0.08900
H919        H  0.00445689  0.43362688  0.65768207     0.08900
H920        H  0.04154463  0.44004936  0.62449353     0.05700
C921        C  0.87948361  0.32836635  0.66438384    -0.20100
C922        C  0.86714039  0.34387831  0.61928214    -0.06700
C923        C  0.86339329  0.37665388  0.62138723     0.14200
C924        C  0.87398548  0.39286116  0.66680116    -0.20100
C925        C  0.88960703  0.37792741  0.71068994    -0.06700
C926        C  0.88903905  0.34421525  0.71063824     0.14200
C927        C  0.89560893  0.32351658  0.75926444    -0.23500
H928        H  0.88063320  0.30301702  0.66430147     0.15500
H929        H  0.86955612  0.41767455  0.66698454     0.15500
C930        C  0.84849252  0.39504833  0.57601932    -0.23400
H931        H  0.89665855  0.29833180  0.74884226     0.05700
H932        H  0.87652073  0.32564232  0.78844104     0.09000
H933        H  0.91788524  0.32866395  0.77897898     0.09000
H934        H  0.82429415  0.38690840  0.56941843     0.08900
H935        H  0.86216929  0.39207905  0.53893056     0.08900
H936        H  0.84745628  0.42050517  0.58447401     0.05700
C937        C  0.85323666  0.38385706  0.80579485    -0.20100
C938        C  0.88617549  0.38517511  0.81026725    -0.06700
C939        C  0.89971008  0.37238494  0.85899443     0.14200
C940        C  0.87997709  0.36213328  0.90046890    -0.20100
C941        C  0.84750191  0.36259024  0.89573426    -0.06700
C942        C  0.83406403  0.37252877  0.84656314     0.14200
C943        C  0.79951761  0.37104464  0.83562229    -0.23500
H944        H  0.84213037  0.39242656  0.76934064     0.15500
H945        H  0.89017262  0.35380565  0.93786427     0.15500
C946        C  0.93414680  0.36789947  0.87031737    -0.23400
H947        H  0.79360710  0.37751964  0.79353378     0.05700
H948        H  0.78698623  0.38766937  0.86168593     0.09000
H949        H  0.79107640  0.34685158  0.84263414     0.09000
H950        H  0.94599215  0.39040085  0.87531414     0.08900
H951        H  0.94555524  0.35366335  0.83956072     0.08900
H952        H  0.93853585  0.35506063  0.90856398     0.05700
C953        C  0.87801506  0.45161152  0.78689453    -0.20100
C954        C  0.89596055  0.43459159  0.74974197    -0.06700
C955        C  0.91140075  0.45328314  0.71021380     0.14200
C956        C  0.91138122  0.48617803  0.71360629    -0.20100
C957        C  0.89593553  0.50329212  0.75380062    -0.06700
C958        C  0.87842064  0.48461499  0.79151533     0.23000
C959        C  0.86028398  0.49661090  0.83922195    -0.23500
H960        H  0.86539387  0.43923742  0.81715053     0.15500
H961        H  0.92461860  0.49895286  0.68397314     0.15500
C962        C  0.93017649  0.44011707  0.66480085    -0.23400
H963        H  0.85554300  0.47780602  0.86902353     0.05700
H964        H  0.83699291  0.50489505  0.82640884     0.09000
H965        H  0.87266544  0.51423578  0.86303750     0.09000
H966        H  0.95425723  0.44902214  0.66773306     0.08900
H967        H  0.93142646  0.41435811  0.66393789     0.08900
H968        H  0.91994198  0.44820438  0.62605637     0.05700
C969        C  0.95741001  0.37143126  0.73907178    -0.20100
C970        C  0.93982986  0.39564913  0.76291050    -0.06700
C971        C  0.95789083  0.42049117  0.78423902     0.14200
C972        C  0.98845268  0.42461309  0.76771670    -0.20100
C973        C  0.00674314  0.39960855  0.74822109    -0.06700
C974        C  0.99026556  0.37096659  0.74049121     0.14200
C975        C  0.00550812  0.33956933  0.73202101    -0.23500
H976        H  0.94639218  0.35181066  0.72042656     0.15500
H977        H  0.99866963  0.44670027  0.77857880     0.15500
C978        C  0.94663271  0.44328402  0.82531084    -0.23400
H979        H  0.99806952  0.32311331  0.76409173     0.05700
H980        H  0.03102769  0.34035777  0.73310417     0.09000
H981        H  0.99816449  0.32994234  0.69273633     0.09000
H982        H  0.96391270  0.44481743  0.85850597     0.08900
H983        H  0.92464692  0.43614062  0.84421208     0.08900
H984        H  0.94418216  0.46649688  0.80597896     0.05700
loop_ 
_geom_bond_atom_site_label_1 
_geom_bond_atom_site_label_2 
_geom_bond_distance 
_geom_bond_site_symmetry_2 
_ccdc_geom_bond_type 
C1          C925   1.592       .  S
C1          C938   1.580       .  S
C1          C954   1.605       .  S
C1          C970   1.581       .  S
C2          C877   1.602       .  S
C2          C893   1.584       .  S
C2          C906   1.580       .  S
C2          C973   1.584       .  S
C3          C826   1.589       .  S
C3          C842   1.574       .  S
C3          C858   1.613       .  S
C3          C957   1.596       .  S
C4          C797   1.577       .  S
C4          C813   1.583       .  S
C4          C861   1.603       .  S
C4          C909   1.588       .  S
C5          C730   1.579       .  S
C5          C746   1.595       .  S
C5          C762   1.593       .  S
C5          C778   1.613       .  S
C6          C685   1.598       .  S
C6          C698   1.572       .  S
C6          C714   1.601       .  S
C6          C781   1.612       .  S
C7          C634   1.590       .  S
C7          C650   1.585       .  S
C7          C669   1.589       .  S
C7          C717   1.616       .  S
C8          C602   1.603       .  S
C8          C621   1.595       .  S
C8          C666   1.595       .  S
C8          C765   1.578       .  S
O9           C12   1.270       .  A
O9          Cd14   2.479       .  S
C10          O19   1.263       .  A
C10          O15   1.268       .  A
C10         C829   1.498       .  S
O11          C17   1.268       .  A
O11         Cd14   2.461       .  S
C12          O20   1.262       .  A
C12         C570   1.474       .  S
C13          O18   1.263       .  A
C13          O16   1.268       .  A
C13         C554   1.494       .  S
Cd14         O21   2.414       .  S
Cd14         O20   2.421       .  S
Cd14         O19   2.418       .  S
Cd14         O15   2.542       .  S
Cd14         O18   2.432       .  S
Cd14         O16   2.501       .  S
C17          O21   1.265       .  A
C17         C589   1.472       .  S
O22          C25   1.271       .  A
O22         Cd27   2.485       .  S
C23          O32   1.263       .  A
C23          O28   1.267       .  A
C23         C810   1.496       .  S
O24          C30   1.263       .  A
O24         Cd27   2.452       .  S
C25          O33   1.262       .  A
C25         C538   1.482       .  S
C26          O31   1.266       .  A
C26          O29   1.264       .  A
C26         C586   1.474       .  S
Cd27         O34   2.478       .  S
Cd27         O33   2.405       .  S
Cd27         O32   2.427       .  S
Cd27         O28   2.521       .  S
Cd27         O31   2.459       .  S
Cd27         O29   2.425       .  S
C30          O34   1.267       .  A
C30         C522   1.492       .  S
O35          C38   1.270       .  A
O35         Cd40   2.497       .  S
C36          O45   1.267       .  A
C36          O41   1.269       .  A
C36         C794   1.497       .  S
O37          C43   1.263       .  A
O37         Cd40   2.432       .  S
C38          O46   1.260       .  A
C38         C541   1.490       .  S
C39          O44   1.267       .  A
C39          O42   1.263       .  A
C39         C506   1.465       .  S
Cd40         O47   2.492       .  S
Cd40         O46   2.423       .  S
Cd40         O45   2.437   1_554  S
Cd40         O41   2.509   1_554  S
Cd40         O44   2.481       .  S
Cd40         O42   2.394       .  S
C43          O47   1.269       .  A
C43         C493   1.494       .  S
O48          C51   1.267       .  A
O48         Cd53   2.484       .  S
C49          O58   1.265       .  A
C49          O54   1.268       .  A
C49         C874   1.487       .  S
O50          C56   1.268       .  A
O50         Cd53   2.485       .  S
C51          O59   1.264       .  A
C51         C474   1.492       .  S
C52          O57   1.267   1_554  A
C52          O55   1.265       .  A
C52         C458   1.491       .  S
Cd53         O60   2.392       .  S
Cd53         O59   2.446       .  S
Cd53         O58   2.479   1_554  S
Cd53         O54   2.467   1_554  S
Cd53         O57   2.456   1_554  S
Cd53         O55   2.454       .  S
C56          O60   1.262       .  A
C56         C509   1.468       .  S
O61          C64   1.270       .  A
O61         Cd66   2.486       .  S
C62          O71   1.265       .  A
C62          O67   1.267       .  A
C62         C845   1.494       .  S
O63          C69   1.265       .  A
O63         Cd66   2.458       .  S
C64          O72   1.264       .  A
C64         C573   1.486       .  S
C65          O70   1.265       .  A
C65          O68   1.267       .  A
C65         C429   1.487   1_554  S
Cd66         O73   2.390       .  S
Cd66         O72   2.410       .  S
Cd66         O71   2.431   1_554  S
Cd66         O67   2.499   1_554  S
Cd66         O70   2.434       .  S
Cd66         O68   2.451       .  S
C69          O73   1.263       .  A
C69         C442   1.469       .  S
O74          C77   1.269       .  A
O74         Cd79   2.482       .  S
C75          O84   1.262       .  A
C75          O80   1.270       .  A
C75         C941   1.495       .  S
O76          C82   1.266       .  A
O76         Cd79   2.438       .  S
C77          O85   1.264       .  A
C77         C410   1.490       .  S
C78          O83   1.267       .  A
C78          O81   1.264       .  A
C78         C445   1.466       .  S
Cd79         O86   2.446       .  S
Cd79         O85   2.426       .  S
Cd79         O84   2.439   1_554  S
Cd79         O80   2.498   1_554  S
Cd79         O83   2.449       .  S
Cd79         O81   2.394       .  S
C82          O86   1.265       .  A
C82         C397   1.487       .  S
O87          C90   1.270       .  A
O87         Cd92   2.483       .  S
C88          O97   1.263       .  A
C88          O93   1.268       .  A
C88         C922   1.495       .  S
O89          C95   1.262       .  A
O89         Cd92   2.440       .  S
C90          O98   1.264       .  A
C90         C413   1.479       .  S
C91          O96   1.267       .  A
C91          O94   1.263       .  A
C91         C378   1.471       .  S
Cd92         O99   2.471       .  S
Cd92         O98   2.417       .  S
Cd92         O97   2.429       .  S
Cd92         O93   2.513       .  S
Cd92         O96   2.453       .  S
Cd92         O94   2.405       .  S
C95          O99   1.267       .  A
C95         C362   1.488       .  S
O100        C103   1.270       .  A
O100       Cd105   2.488       .  S
C101        O110   1.264       .  A
C101        O106   1.263       .  A
C101        C890   1.478       .  S
O102        C108   1.266       .  A
O102       Cd105   2.472       .  S
C103        O111   1.264       .  A
C103        C477   1.491       .  S
C104        O109   1.264       .  A
C104        O107   1.269       .  A
C104        C346   1.486       .  S
Cd105       O112   2.403       .  S
Cd105       O111   2.427       .  S
Cd105       O110   2.490       .  S
Cd105       O106   2.467       .  S
Cd105       O109   2.416       .  S
Cd105       O107   2.472       .  S
C108        O112   1.263       .  A
C108        C381   1.476       .  S
O113        C116   1.271       .  A
O113       Cd118   2.536       .  S
C114        O123   1.262       .  A
C114        O119   1.267       .  A
C114        C605   1.503       .  S
O115        C121   1.267       .  A
O115       Cd118   2.479       .  S
C116        O124   1.259       .  A
C116        C317   1.496       .  S
C117        O122   1.264       .  A
C117        O120   1.267       .  A
C117        C557   1.494       .  S
Cd118       O125   2.393       .  S
Cd118       O124   2.449       .  S
Cd118       O123   2.492       .  S
Cd118       O119   2.525       .  S
Cd118       O122   2.435       .  S
Cd118       O120   2.500       .  S
C121        O125   1.264       .  A
C121        C330   1.471       .  S
O126        C129   1.266       .  A
O126       Cd131   2.517       .  S
C127        O136   1.268       .  A
C127        O132   1.263       .  A
C127        C298   1.492       .  S
O128        C134   1.265       .  A
O128       Cd131   2.462       .  S
C129        O137   1.262       .  A
C129        C637   1.498       .  S
C130        O135   1.266       .  A
C130        O133   1.265       .  A
C130        C365   1.490       .  S
Cd131       O138   2.408       .  S
Cd131       O137   2.438       .  S
Cd131       O136   2.487       .  S
Cd131       O132   2.434       .  S
Cd131       O135   2.455       .  S
Cd131       O133   2.453       .  S
C134        O138   1.263       .  A
C134        C333   1.469   1_545  S
O139        C142   1.268       .  A
O139       Cd144   2.510   1_554  S
C140        O149   1.263       .  A
C140        O145   1.269       .  A
C140        C301   1.487       .  S
O141        C147   1.267       .  A
O141       Cd144   2.453       .  S
C142        O150   1.263       .  A
C142        C653   1.494       .  S
C143        O148   1.262       .  A
C143        O146   1.267       .  A
C143        C394   1.487       .  S
Cd144       O151   2.404       .  S
Cd144       O150   2.423   1_556  S
Cd144       O149   2.426       .  S
Cd144       O145   2.490       .  S
Cd144       O148   2.440       .  S
Cd144       O146   2.471       .  S
C147        O151   1.266       .  A
C147        C282   1.476       .  S
O152        C155   1.273       .  A
O152       Cd157   2.486       .  S
C153        O162   1.263       .  A
C153        O158   1.269       .  A
C153        C701   1.494       .  S
O154        C160   1.268       .  A
O154       Cd157   2.467       .  S
C155        O163   1.262       .  A
C155        C269   1.491       .  S
C156        O161   1.265       .  A
C156        O159   1.268       .  A
C156        C461   1.489       .  S
Cd157       O164   2.413       .  S
Cd157       O163   2.404       .  S
Cd157       O162   2.403   1_556  S
Cd157       O158   2.531   1_556  S
Cd157       O161   2.444       .  S
Cd157       O159   2.458       .  S
C160        O164   1.263       .  A
C160        C285   1.477       .  S
O165        C168   1.272       .  A
O165       Cd170   2.509       .  S
C166        O175   1.263       .  A
C166        O171   1.267       .  A
C166        C618   1.491       .  S
O167        C173   1.267   1_554  A
O167       Cd170   2.483   1_554  S
C168        O176   1.262       .  A
C168        C314   1.500       .  S
C169        O174   1.265       .  A
C169        O172   1.267       .  A
C169        C426   1.487       .  S
Cd170       O177   2.405       .  S
Cd170       O176   2.448       .  S
Cd170       O175   2.493   1_556  S
Cd170       O171   2.485   1_556  S
Cd170       O174   2.448       .  S
Cd170       O172   2.447       .  S
C173        O177   1.262       .  A
C173        C250   1.471       .  S
O178        C181   1.268       .  A
O178       Cd183   2.518   1_554  S
C179        O188   1.262       .  A
C179        O184   1.272       .  A
C179        C234   1.494       .  S
O180        C186   1.266   1_554  A
O180       Cd183   2.464   1_554  S
C181        O189   1.263       .  A
C181        C749   1.494       .  S
C182        O187   1.266       .  A
C182        O185   1.267       .  A
C182        C490   1.493       .  S
Cd183       O190   2.420       .  S
Cd183       O189   2.411   1_556  S
Cd183       O188   2.418       .  S
Cd183       O184   2.497       .  S
Cd183       O187   2.442   1_556  S
Cd183       O185   2.482   1_556  S
C186        O190   1.264       .  A
C186        C253   1.466       .  S
O191        C194   1.269       .  A
O191       Cd196   2.494       .  S
C192        O201   1.262       .  A
C192        O197   1.269       .  A
C192        C733   1.496       .  S
O193        C199   1.266       .  A
O193       Cd196   2.454       .  S
C194        O202   1.262       .  A
C194        C237   1.486       .  S
C195        O200   1.267       .  A
C195        O198   1.264       .  A
C195        C218   1.470       .  S
Cd196       O203   2.470       .  S
Cd196       O202   2.441       .  S
Cd196       O201   2.435       .  S
Cd196       O197   2.508       .  S
Cd196       O200   2.483       .  S
Cd196       O198   2.397       .  S
C199        O203   1.265       .  A
C199        C525   1.492       .  S
O204        C207   1.272       .  A
O204       Cd209   2.487       .  S
C205        O214   1.264       .  A
C205        O210   1.267       .  A
C205        C682   1.493       .  S
O206        C212   1.267       .  A
O206       Cd209   2.489       .  S
C207        O215   1.261       .  A
C207        C266   1.483       .  S
C208        O213   1.264       .  A
C208        O211   1.266       .  A
C208        C349   1.488       .  S
Cd209       O216   2.388       .  S
Cd209       O215   2.412       .  S
Cd209       O214   2.426       .  S
Cd209       O210   2.527       .  S
Cd209       O213   2.419       .  S
Cd209       O211   2.481       .  S
C212        O216   1.265       .  A
C212        C221   1.476       .  S
C217        C218   1.404       .  A
C217        C222   1.407       .  A
C217        H224   1.084       .  S
C218        C219   1.411       .  A
C219        C226   1.508       .  S
C219        C220   1.394   1_565  A
C220        C221   1.402       .  A
C220        H225   1.085       .  S
C221        C222   1.416   1_545  A
C222        C223   1.506   1_565  S
C223        H227   1.111   1_545  S
C223        H228   1.111       .  S
C223        H229   1.110       .  S
C226        H230   1.108       .  S
C226        H231   1.110       .  S
C226        H232   1.111       .  S
C233        C234   1.405       .  A
C233        C238   1.405       .  A
C233        H240   1.083       .  S
C234        C235   1.424       .  A
C235        C242   1.509       .  S
C235        C236   1.405       .  A
C236        C237   1.400       .  A
C236        H241   1.084       .  S
C237        C238   1.417       .  A
C238        C239   1.507       .  S
C239        H243   1.111       .  S
C239        H244   1.109       .  S
C239        H245   1.109       .  S
C242        H246   1.110       .  S
C242        H247   1.110       .  S
C242        H248   1.111       .  S
C249        C250   1.403   1_554  A
C249        C254   1.403       .  A
C249        H256   1.084       .  S
C250        C251   1.414       .  A
C251        C258   1.509       .  S
C251        C252   1.399       .  A
C252        C253   1.399       .  A
C252        H257   1.085       .  S
C253        C254   1.411   1_556  A
C254        C255   1.508       .  S
C255        H259   1.111       .  S
C255        H260   1.110       .  S
C255        H261   1.111       .  S
C258        H262   1.110       .  S
C258        H263   1.109       .  S
C258        H264   1.111       .  S
C265        C266   1.400       .  A
C265        C270   1.404       .  A
C265        H272   1.084       .  S
C266        C267   1.418       .  A
C267        C274   1.510       .  S
C267        C268   1.403       .  A
C268        C269   1.404       .  A
C268        H273   1.084       .  S
C269        C270   1.424       .  A
C270        C271   1.509       .  S
C271        H275   1.111       .  S
C271        H276   1.110       .  S
C271        H277   1.110       .  S
C274        H278   1.110       .  S
C274        H279   1.109       .  S
C274        H280   1.111       .  S
C281        C282   1.402       .  A
C281        C286   1.398       .  A
C281        H288   1.084       .  S
C282        C283   1.416       .  A
C283        C290   1.508   1_556  S
C283        C284   1.403       .  A
C284        C285   1.404       .  A
C284        H289   1.084   1_556  S
C285        C286   1.416       .  A
C286        C287   1.509       .  S
C287        H291   1.110       .  S
C287        H292   1.111       .  S
C287        H293   1.109       .  S
C290        H294   1.110       .  S
C290        H295   1.111       .  S
C290        H296   1.111       .  S
C297        C298   1.410       .  A
C297        C302   1.404       .  A
C297        H304   1.084       .  S
C298        C299   1.417       .  A
C299        C306   1.508       .  S
C299        C300   1.404       .  A
C300        C301   1.407       .  A
C300        H305   1.084       .  S
C301        C302   1.413       .  A
C302        C303   1.508       .  S
C303        H307   1.111       .  S
C303        H308   1.110       .  S
C303        H309   1.111       .  S
C306        H310   1.110       .  S
C306        H311   1.110       .  S
C306        H312   1.111       .  S
C313        C314   1.405       .  A
C313        C318   1.407       .  A
C313        H320   1.084       .  S
C314        C315   1.425       .  A
C315        C322   1.509       .  S
C315        C316   1.409       .  A
C316        C317   1.403       .  A
C316        H321   1.084       .  S
C317        C318   1.421       .  A
C318        C319   1.509       .  S
C319        H323   1.111       .  S
C319        H324   1.111       .  S
C319        H325   1.110       .  S
C322        H326   1.110       .  S
C322        H327   1.110       .  S
C322        H328   1.111       .  S
C329        C330   1.403       .  A
C329        C334   1.397       .  A
C329        H336   1.085       .  S
C330        C331   1.414       .  A
C331        C338   1.507       .  S
C331        C332   1.403       .  A
C332        C333   1.403       .  A
C332        H337   1.084       .  S
C333        C334   1.412       .  A
C334        C335   1.509       .  S
C335        H339   1.111       .  S
C335        H340   1.108   1_565  S
C335        H341   1.111   1_565  S
C338        H342   1.109       .  S
C338        H343   1.110       .  S
C338        H344   1.111       .  S
C345        C346   1.406       .  A
C345        C350   1.407       .  A
C345        H352   1.084       .  S
C346        C347   1.418       .  A
C347        C354   1.510       .  S
C347        C348   1.399       .  A
C348        C349   1.404       .  A
C348        H353   1.084       .  S
C349        C350   1.418       .  A
C350        C351   1.507       .  S
C351        H355   1.111       .  S
C351        H356   1.110       .  S
C351        H357   1.110       .  S
C354        H358   1.110       .  S
C354        H359   1.110       .  S
C354        H360   1.111       .  S
C361        C362   1.404       .  A
C361        C366   1.403       .  A
C361        H368   1.084       .  S
C362        C363   1.419       .  A
C363        C370   1.509       .  S
C363        C364   1.403       .  A
C364        C365   1.406       .  A
C364        H369   1.083       .  S
C365        C366   1.419       .  A
C366        C367   1.508       .  S
C367        H371   1.111       .  S
C367        H372   1.110       .  S
C367        H373   1.110       .  S
C370        H374   1.111       .  S
C370        H375   1.110       .  S
C370        H376   1.111       .  S
C377        C378   1.403       .  A
C377        C382   1.402       .  A
C377        H384   1.084       .  S
C378        C379   1.413       .  A
C379        C386   1.510       .  S
C379        C380   1.397       .  A
C380        C381   1.404   1_655  A
C380        H385   1.084   1_655  S
C381        C382   1.415   1_455  A
C382        C383   1.507   1_655  S
C383        H387   1.111   1_455  S
C383        H388   1.110       .  S
C383        H389   1.110       .  S
C386        H390   1.108       .  S
C386        H391   1.111       .  S
C386        H392   1.111       .  S
C393        C394   1.404   1_554  A
C393        C398   1.403       .  A
C393        H400   1.084       .  S
C394        C395   1.418       .  A
C395        C402   1.509       .  S
C395        C396   1.402   1_556  A
C396        C397   1.406       .  A
C396        H401   1.083       .  S
C397        C398   1.418       .  A
C398        C399   1.508       .  S
C399        H403   1.111       .  S
C399        H404   1.110       .  S
C399        H405   1.110   1_554  S
C402        H406   1.111   1_556  S
C402        H407   1.110       .  S
C402        H408   1.111       .  S
C409        C410   1.410       .  A
C409        C414   1.403       .  A
C409        H416   1.084       .  S
C410        C411   1.417       .  A
C411        C418   1.508       .  S
C411        C412   1.404       .  A
C412        C413   1.405       .  A
C412        H417   1.084       .  S
C413        C414   1.411       .  A
C414        C415   1.507       .  S
C415        H419   1.111       .  S
C415        H420   1.110       .  S
C415        H421   1.110       .  S
C418        H422   1.110       .  S
C418        H423   1.110       .  S
C418        H424   1.111       .  S
C425        C426   1.405       .  A
C425        C430   1.402       .  A
C425        H432   1.084       .  S
C426        C427   1.418       .  A
C427        C434   1.509   1_556  S
C427        C428   1.403       .  A
C428        C429   1.407       .  A
C428        H433   1.083   1_556  S
C429        C430   1.416       .  A
C430        C431   1.508       .  S
C431        H435   1.111       .  S
C431        H436   1.110       .  S
C431        H437   1.110   1_556  S
C434        H438   1.110   1_554  S
C434        H439   1.111       .  S
C434        H440   1.111       .  S
C441        C442   1.402       .  A
C441        C446   1.395       .  A
C441        H448   1.084       .  S
C442        C443   1.413       .  A
C443        C450   1.507   1_554  S
C443        C444   1.401       .  A
C444        C445   1.402       .  A
C444        H449   1.084   1_554  S
C445        C446   1.412       .  A
C446        C447   1.509       .  S
C447        H451   1.111       .  S
C447        H452   1.108       .  S
C447        H453   1.111       .  S
C450        H454   1.110       .  S
C450        H455   1.110       .  S
C450        H456   1.111       .  S
C457        C458   1.406   1_556  A
C457        C462   1.403       .  A
C457        H464   1.084       .  S
C458        C459   1.420       .  A
C459        C466   1.508       .  S
C459        C460   1.404       .  A
C460        C461   1.405   1_554  A
C460        H465   1.084       .  S
C461        C462   1.418       .  A
C462        C463   1.509       .  S
C463        H467   1.111       .  S
C463        H468   1.110       .  S
C463        H469   1.110   1_556  S
C466        H470   1.110   1_554  S
C466        H471   1.110       .  S
C466        H472   1.111       .  S
C473        C474   1.409       .  A
C473        C478   1.405       .  A
C473        H480   1.084       .  S
C474        C475   1.417       .  A
C475        C482   1.508       .  S
C475        C476   1.405       .  A
C476        C477   1.408       .  A
C476        H481   1.084       .  S
C477        C478   1.415       .  A
C478        C479   1.507       .  S
C479        H483   1.111       .  S
C479        H484   1.110       .  S
C479        H485   1.110       .  S
C482        H486   1.110       .  S
C482        H487   1.110       .  S
C482        H488   1.111       .  S
C489        C490   1.405       .  A
C489        C494   1.403       .  A
C489        H496   1.083       .  S
C490        C491   1.419       .  A
C491        C498   1.508       .  S
C491        C492   1.408       .  A
C492        C493   1.407       .  A
C492        H497   1.084       .  S
C493        C494   1.420       .  A
C494        C495   1.510       .  S
C495        H499   1.111       .  S
C495        H500   1.110   1_554  S
C495        H501   1.110       .  S
C498        H502   1.110   1_554  S
C498        H503   1.110       .  S
C498        H504   1.111       .  S
C505        C506   1.400   1_556  A
C505        C510   1.396       .  A
C505        H512   1.085       .  S
C506        C507   1.410       .  A
C507        C514   1.506       .  S
C507        C508   1.406       .  A
C508        C509   1.404       .  A
C508        H513   1.084       .  S
C509        C510   1.413   1_554  A
C510        C511   1.510       .  S
C511        H515   1.109       .  S
C511        H516   1.109       .  S
C511        H517   1.110       .  S
C514        H518   1.111       .  S
C514        H519   1.110       .  S
C514        H520   1.111       .  S
C521        C522   1.406       .  A
C521        C526   1.405       .  A
C521        H528   1.084       .  S
C522        C523   1.420       .  A
C523        C530   1.509       .  S
C523        C524   1.404       .  A
C524        C525   1.406       .  A
C524        H529   1.083       .  S
C525        C526   1.419       .  A
C526        C527   1.508       .  S
C527        H531   1.111       .  S
C527        H532   1.110       .  S
C527        H533   1.110       .  S
C530        H534   1.110       .  S
C530        H535   1.110       .  S
C530        H536   1.111       .  S
C537        C538   1.400       .  A
C537        C542   1.404       .  A
C537        H544   1.084       .  S
C538        C539   1.418       .  A
C539        C546   1.510       .  S
C539        C540   1.403       .  A
C540        C541   1.404       .  A
C540        H545   1.084       .  S
C541        C542   1.424       .  A
C542        C543   1.509       .  S
C543        H547   1.111       .  S
C543        H548   1.110       .  S
C543        H549   1.110       .  S
C546        H550   1.109       .  S
C546        H551   1.110       .  S
C546        H552   1.111       .  S
C553        C554   1.408       .  A
C553        C558   1.410       .  A
C553        H560   1.083       .  S
C554        C555   1.419       .  A
C555        C562   1.510       .  S
C555        C556   1.401       .  A
C556        C557   1.405       .  A
C556        H561   1.084       .  S
C557        C558   1.419       .  A
C558        C559   1.507       .  S
C559        H563   1.111       .  S
C559        H564   1.110       .  S
C559        H565   1.110       .  S
C562        H566   1.110       .  S
C562        H567   1.110       .  S
C562        H568   1.111       .  S
C569        C570   1.404       .  A
C569        C574   1.405       .  A
C569        H576   1.084       .  S
C570        C571   1.409       .  A
C571        C578   1.508       .  S
C571        C572   1.401       .  A
C572        C573   1.408       .  A
C572        H577   1.084       .  S
C573        C574   1.417       .  A
C574        C575   1.507       .  S
C575        H579   1.111       .  S
C575        H580   1.110       .  S
C575        H581   1.110       .  S
C578        H582   1.110       .  S
C578        H583   1.110       .  S
C578        H584   1.111       .  S
C585        C586   1.404   1_655  A
C585        C590   1.401       .  A
C585        H592   1.084   1_655  S
C586        C587   1.414   1_455  A
C587        C594   1.507       .  S
C587        C588   1.402       .  A
C588        C589   1.402       .  A
C588        H593   1.084       .  S
C589        C590   1.414       .  A
C590        C591   1.509       .  S
C591        H595   1.111       .  S
C591        H596   1.110       .  S
C591        H597   1.109       .  S
C594        H598   1.110   1_655  S
C594        H599   1.110   1_655  S
C594        H600   1.111       .  S
C601        C602   1.418       .  A
C601        C606   1.410       .  A
C601        H608   1.070       .  S
C602        C603   1.443       .  A
C603        C610   1.509       .  S
C603        C604   1.414       .  A
C604        C605   1.399       .  A
C604        H609   1.084       .  S
C605        C606   1.415       .  A
C606        C607   1.509       .  S
C607        H611   1.110       .  S
C607        H612   1.109       .  S
C607        H613   1.110       .  S
C610        H614   1.100       .  S
C610        H615   1.105       .  S
C610        H616   1.111       .  S
C617        C618   1.392       .  A
C617        C622   1.408       .  A
C617        H624   1.085       .  S
C618        C619   1.408       .  A
C619        C626   1.507       .  S
C619        C620   1.412       .  A
C620        C621   1.426       .  A
C620        H625   1.079       .  S
C621        C622   1.444       .  A
C622        C623   1.500       .  S
C623        H627   1.111       .  S
C623        H628   1.103       .  S
C623        H629   1.096       .  S
C626        H630   1.110       .  S
C626        H631   1.109       .  S
C626        H632   1.111       .  S
C633        C634   1.422       .  A
C633        C638   1.397       .  A
C633        H640   1.072       .  S
C634        C635   1.436       .  A
C635        C642   1.511       .  S
C635        C636   1.416       .  A
C636        C637   1.406       .  A
C636        H641   1.084       .  S
C637        C638   1.411       .  A
C638        C639   1.513       .  S
C639        H643   1.111       .  S
C639        H644   1.110       .  S
C639        H645   1.110       .  S
C642        H646   1.101   1_545  S
C642        H647   1.102       .  S
C642        H648   1.111       .  S
C649        C650   1.422       .  A
C649        C654   1.409       .  A
C649        H656   1.075       .  S
C650        C651   1.439       .  A
C651        C658   1.515       .  S
C651        C652   1.399       .  A
C652        C653   1.400       .  A
C652        H657   1.085       .  S
C653        C654   1.413       .  A
C654        C655   1.508       .  S
C655        H659   1.111       .  S
C655        H660   1.110       .  S
C655        H661   1.110       .  S
C658        H662   1.100       .  S
C658        H663   1.110       .  S
C658        H664   1.111       .  S
C665        C666   1.419       .  A
C665        C670   1.426       .  A
C665        H672   1.082       .  S
C666        C667   1.434       .  A
C667        C674   1.501       .  S
C667        C668   1.387       .  A
C668        C669   1.396   1_565  A
C668        H673   1.063   1_565  S
C669        C670   1.439   1_545  A
C670        C671   1.506   1_565  S
C671        H675   1.110   1_545  S
C671        H676   1.101       .  S
C671        H677   1.110   1_545  S
C674        H678   1.103       .  S
C674        H679   1.074       .  S
C674        H680   1.106       .  S
C681        C682   1.395       .  A
C681        C686   1.401       .  A
C681        H688   1.084       .  S
C682        C683   1.409       .  A
C683        C690   1.507       .  S
C683        C684   1.413       .  A
C684        C685   1.425       .  A
C684        H689   1.075       .  S
C685        C686   1.445       .  A
C686        C687   1.515       .  S
C687        H691   1.106       .  S
C687        H692   1.111       .  S
C687        H693   1.103       .  S
C690        H694   1.110       .  S
C690        H695   1.110       .  S
C690        H696   1.111       .  S
C697        C698   1.419       .  A
C697        C702   1.413       .  A
C697        H704   1.079       .  S
C698        C699   1.440       .  A
C699        C706   1.515       .  S
C699        C700   1.399       .  A
C700        C701   1.397       .  A
C700        H705   1.083       .  S
C701        C702   1.412       .  A
C702        C703   1.506       .  S
C703        H707   1.111       .  S
C703        H708   1.110       .  S
C703        H709   1.110       .  S
C706        H710   1.104       .  S
C706        H711   1.106       .  S
C706        H712   1.111       .  S
C713        C714   1.419       .  A
C713        C718   1.416       .  A
C713        H720   1.083       .  S
C714        C715   1.449       .  A
C715        C722   1.520       .  S
C715        C716   1.415       .  A
C716        C717   1.424       .  A
C716        H721   1.077       .  S
C717        C718   1.423       .  A
C718        C719   1.507       .  S
C719        H723   1.111       .  S
C719        H724   1.104       .  S
C719        H725   1.109       .  S
C722        H726   1.104       .  S
C722        H727   1.099       .  S
C722        H728   1.110       .  S
C729        C730   1.420       .  A
C729        C734   1.399       .  A
C729        H736   1.083       .  S
C730        C731   1.446       .  A
C731        C738   1.513       .  S
C731        C732   1.413       .  A
C732        C733   1.401       .  A
C732        H737   1.085       .  S
C733        C734   1.413       .  A
C734        C735   1.510       .  S
C735        H739   1.111       .  S
C735        H740   1.110       .  S
C735        H741   1.110       .  S
C738        H742   1.109       .  S
C738        H743   1.093       .  S
C738        H744   1.112       .  S
C745        C746   1.423       .  A
C745        C750   1.410       .  A
C745        H752   1.077       .  S
C746        C747   1.442       .  A
C747        C754   1.515       .  S
C747        C748   1.400       .  A
C748        C749   1.398       .  A
C748        H753   1.084       .  S
C749        C750   1.411       .  A
C750        C751   1.507       .  S
C751        H755   1.111       .  S
C751        H756   1.110       .  S
C751        H757   1.109       .  S
C754        H758   1.105       .  S
C754        H759   1.100       .  S
C754        H760   1.111       .  S
C761        C762   1.430       .  A
C761        C766   1.416       .  A
C761        H768   1.075       .  S
C762        C763   1.431       .  A
C763        C770   1.505       .  S
C763        C764   1.405       .  A
C764        C765   1.419       .  A
C764        H769   1.082       .  S
C765        C766   1.430       .  A
C766        C767   1.511       .  S
C767        H771   1.109       .  S
C767        H772   1.111       .  S
C767        H773   1.094       .  S
C770        H774   1.111       .  S
C770        H775   1.091       .  S
C770        H776   1.110       .  S
C777        C778   1.418       .  A
C777        C782   1.425       .  A
C777        H784   1.083       .  S
C778        C779   1.443       .  A
C779        C786   1.519       .  S
C779        C780   1.413       .  A
C780        C781   1.420   1_565  A
C780        H785   1.076   1_565  S
C781        C782   1.437   1_545  A
C782        C783   1.512       .  S
C783        H787   1.110       .  S
C783        H788   1.101   1_565  S
C783        H789   1.095   1_565  S
C786        H790   1.103       .  S
C786        H791   1.106       .  S
C786        H792   1.111       .  S
C793        C794   1.399       .  A
C793        C798   1.401       .  A
C793        H800   1.084       .  S
C794        C795   1.413       .  A
C795        C802   1.507       .  S
C795        C796   1.412       .  A
C796        C797   1.423       .  A
C796        H801   1.076       .  S
C797        C798   1.439       .  A
C798        C799   1.514       .  S
C799        H803   1.111       .  S
C799        H804   1.110       .  S
C799        H805   1.096       .  S
C802        H806   1.110       .  S
C802        H807   1.110       .  S
C802        H808   1.111       .  S
C809        C810   1.400       .  A
C809        C814   1.402       .  A
C809        H816   1.083       .  S
C810        C811   1.412       .  A
C811        C818   1.508       .  S
C811        C812   1.410       .  A
C812        C813   1.425       .  A
C812        H817   1.076       .  S
C813        C814   1.437       .  A
C814        C815   1.513       .  S
C815        H819   1.111       .  S
C815        H820   1.107       .  S
C815        H821   1.106       .  S
C818        H822   1.110       .  S
C818        H823   1.110       .  S
C818        H824   1.111       .  S
C825        C826   1.426       .  A
C825        C830   1.413       .  A
C825        H832   1.076       .  S
C826        C827   1.440       .  A
C827        C834   1.516       .  S
C827        C828   1.401       .  A
C828        C829   1.399       .  A
C828        H833   1.084       .  S
C829        C830   1.412       .  A
C830        C831   1.507       .  S
C831        H835   1.110       .  S
C831        H836   1.110       .  S
C831        H837   1.110       .  S
C834        H838   1.103       .  S
C834        H839   1.107       .  S
C834        H840   1.111       .  S
C841        C842   1.417       .  A
C841        C846   1.409       .  A
C841        H848   1.076       .  S
C842        C843   1.440       .  A
C843        C850   1.516       .  S
C843        C844   1.402       .  A
C844        C845   1.399       .  A
C844        H849   1.084       .  S
C845        C846   1.413       .  A
C846        C847   1.507       .  S
C847        H851   1.111       .  S
C847        H852   1.109       .  S
C847        H853   1.110       .  S
C850        H854   1.106       .  S
C850        H855   1.108       .  S
C850        H856   1.111       .  S
C857        C858   1.418       .  A
C857        C862   1.412       .  A
C857        H864   1.076       .  S
C858        C859   1.437       .  A
C859        C866   1.506       .  S
C859        C860   1.416       .  A
C860        C861   1.416   1_655  A
C860        H865   1.081   1_655  S
C861        C862   1.445   1_455  A
C862        C863   1.521   1_655  S
C863        H867   1.110   1_455  S
C863        H868   1.102       .  S
C863        H869   1.102       .  S
C866        H870   1.091       .  S
C866        H871   1.110       .  S
C866        H872   1.108       .  S
C873        C874   1.392       .  A
C873        C878   1.406       .  A
C873        H880   1.085       .  S
C874        C875   1.406       .  A
C875        C882   1.508       .  S
C875        C876   1.409       .  A
C876        C877   1.427       .  A
C876        H881   1.076       .  S
C877        C878   1.446       .  A
C878        C879   1.508       .  S
C879        H883   1.111       .  S
C879        H884   1.105       .  S
C879        H885   1.101       .  S
C882        H886   1.110       .  S
C882        H887   1.109       .  S
C882        H888   1.111       .  S
C889        C890   1.397       .  A
C889        C894   1.412       .  A
C889        H896   1.084       .  S
C890        C891   1.406       .  A
C891        C898   1.511       .  S
C891        C892   1.399       .  A
C892        C893   1.418       .  A
C892        H897   1.074       .  S
C893        C894   1.441       .  A
C894        C895   1.514       .  S
C895        H899   1.110       .  S
C895        H900   1.104       .  S
C895        H901   1.108       .  S
C898        H902   1.111       .  S
C898        H903   1.109       .  S
C898        H904   1.111       .  S
C905        C906   1.407       .  A
C905        C910   1.413       .  A
C905        H912   1.077       .  S
C906        C907   1.433       .  A
C907        C914   1.511       .  S
C907        C908   1.399       .  A
C908        C909   1.408       .  A
C908        H913   1.074       .  S
C909        C910   1.443       .  A
C910        C911   1.515       .  S
C911        H915   1.111       .  S
C911        H916   1.105       .  S
C911        H917   1.102       .  S
C914        H918   1.111       .  S
C914        H919   1.102       .  S
C914        H920   1.108       .  S
C921        C922   1.400       .  A
C921        C926   1.404       .  A
C921        H928   1.084       .  S
C922        C923   1.411       .  A
C923        C930   1.508       .  S
C923        C924   1.408       .  A
C924        C925   1.424       .  A
C924        H929   1.077       .  S
C925        C926   1.441       .  A
C926        C927   1.518       .  S
C927        H931   1.111       .  S
C927        H932   1.107       .  S
C927        H933   1.097       .  S
C930        H934   1.110       .  S
C930        H935   1.110       .  S
C930        H936   1.111       .  S
C937        C938   1.421       .  A
C937        C942   1.400       .  A
C937        H944   1.083       .  S
C938        C939   1.445       .  A
C939        C946   1.516       .  S
C939        C940   1.413       .  A
C940        C941   1.401       .  A
C940        H945   1.084       .  S
C941        C942   1.412       .  A
C942        C943   1.510       .  S
C943        H947   1.111       .  S
C943        H948   1.110       .  S
C943        H949   1.110       .  S
C946        H950   1.098       .  S
C946        H951   1.103       .  S
C946        H952   1.111       .  S
C953        C954   1.418       .  A
C953        C958   1.416       .  A
C953        H960   1.071       .  S
C954        C955   1.433       .  A
C955        C962   1.511       .  S
C955        C956   1.409       .  A
C956        C957   1.417       .  A
C956        H961   1.083       .  S
C957        C958   1.447       .  A
C958        C959   1.523       .  S
C959        H963   1.110       .  S
C959        H964   1.104       .  S
C959        H965   1.100       .  S
C962        H966   1.107       .  S
C962        H967   1.102       .  S
C962        H968   1.110       .  S
C969        C970   1.419       .  A
C969        C974   1.413       .  A
C969        H976   1.073       .  S
C970        C971   1.423       .  A
C971        C978   1.504       .  S
C971        C972   1.393       .  A
C972        C973   1.417   1_655  A
C972        H977   1.079       .  S
C973        C974   1.431   1_455  A
C974        C975   1.509   1_655  S
C975        H979   1.111   1_455  S
C975        H980   1.098       .  S
C975        H981   1.111   1_455  S
C978        H982   1.110       .  S
C978        H983   1.104       .  S
C978        H984   1.103       .  S
