geometry optimzed in LAMMPS
_audit_creation_date              2020-11-30 
_audit_creation_method            'lammps2cif' 
_symmetry_space_group_name_H-M    'P1' 
_symmetry_Int_Tables_number       1 
_symmetry_cell_setting            triclinic 
loop_ 
_symmetry_equiv_pos_as_xyz 
  x,y,z 
_cell_length_a                    32.98854341 
_cell_length_b                    32.97297202052011 
_cell_length_c                    36.16582454491993 
_cell_angle_alpha                 89.99945453582593 
_cell_angle_beta                  89.99546511035832 
_cell_angle_gamma                 90.00032181443514 
loop_ 
_atom_site_label 
_atom_site_type_symbol 
_atom_site_fract_x 
_atom_site_fract_y 
_atom_site_fract_z 
_atom_site_charge 
C1          C  0.10044166  0.95491719  0.50152907     0.03200
C2          C  0.98853563  0.89740328  0.50156739     0.03200
C3          C  0.93107095  0.00937575  0.50156402     0.03200
C4          C  0.04297928  0.06690422  0.50166681     0.03200
C5          C  0.98882665  0.06688940  0.00522652     0.03200
C6          C  0.93123006  0.95496421  0.00527995     0.03200
C7          C  0.04307215  0.89730656  0.00532431     0.03200
C8          C  0.10066908  0.00922156  0.00527386     0.03200
C9          C  0.54319433  0.56657614  0.00156147     0.03200
C10         C  0.43130285  0.50903939  0.00152565     0.03200
C11         C  0.60068268  0.45461763  0.00154122     0.03200
C12         C  0.48878931  0.39706853  0.00164041     0.03200
O13         O  0.64959661  0.31662705  0.68155598    -0.52100
C14         C  0.57586574  0.32214396  0.59173013     0.80500
O15         O  0.61543551  0.19752511  0.62433460    -0.53200
C16         C  0.66017619  0.29148953  0.70626350     0.80500
C17         C  0.54798273  0.25397101  0.70583333     0.82900
Cd18       Cd  0.60657630  0.26741807  0.64876695     1.37500
O19         O  0.60845706  0.32901544  0.60902260    -0.52100
O20         O  0.56322451  0.28839314  0.69961053    -0.50900
C21         C  0.65263663  0.20224026  0.61682981     0.82900
O22         O  0.55574834  0.22597934  0.68288906    -0.53300
O23         O  0.55714267  0.28992391  0.60022729    -0.51700
O24         O  0.64910043  0.25514190  0.70241236    -0.51700
O25         O  0.66711428  0.23746677  0.62068014    -0.50900
O26         O  0.85653682  0.10538545  0.68268449    -0.52100
C27         C  0.85645275  0.04034663  0.58902332     0.80500
O28         O  0.75854330  0.02229595  0.68284763    -0.53200
C29         C  0.83198566  0.12095002  0.70557101     0.80500
C30         C  0.73821015  0.11684465  0.61673149     0.82900
Cd31       Cd  0.80321969  0.06981003  0.64780002     1.37500
O32         O  0.86295669  0.07317516  0.60605022    -0.52100
O33         O  0.77326756  0.13142760  0.62151321    -0.50900
C34         C  0.78634364  0.01221647  0.70517547     0.82900
O35         O  0.73361613  0.07936181  0.62311228    -0.53300
O36         O  0.82514199  0.02067156  0.59853262    -0.51700
O37         O  0.79463037  0.11649911  0.69938895    -0.51700
O38         O  0.82176915  0.02416705  0.69788612    -0.50900
O39         O  0.89263008  0.14150584  0.82394040    -0.52100
C40         C  0.95733514  0.14155218  0.91792722     0.80500
O41         O  0.97538025  0.23939971  0.82401477    -0.53200
C42         C  0.87698560  0.16611523  0.80115182     0.80500
C43         C  0.88103834  0.25991210  0.89022526     0.82900
Cd44       Cd  0.92789944  0.19478602  0.85912826     1.37500
O45         O  0.92423291  0.13533646  0.90127123    -0.52100
O46         O  0.86650074  0.22476929  0.88576364    -0.50900
C47         C  0.98561255  0.21149140  0.80183810     0.82900
O48         O  0.91842557  0.26456310  0.88349545    -0.53300
O49         O  0.97722718  0.17261204  0.90809121    -0.51700
O50         O  0.88118917  0.20347262  0.80754770    -0.51700
O51         O  0.97373663  0.17605277  0.80924899    -0.50900
O52         O  0.66903305  0.38873678  0.89803253    -0.52100
C53         C  0.70624545  0.33740409  0.80048427     0.80500
O54         O  0.77171475  0.44224077  0.82403660    -0.53200
C55         C  0.67542312  0.42173157  0.91485882     0.80500
C56         C  0.79554990  0.34531092  0.89002613     0.82900
Cd57       Cd  0.73031411  0.39109979  0.85790068     1.37500
O58         O  0.68103643  0.34834951  0.82499099    -0.52100
O59         O  0.76043746  0.33065230  0.88600892    -0.50900
C60         C  0.74404787  0.44947176  0.80063451     0.82900
O61         O  0.80011160  0.38256130  0.88258365    -0.53300
O62         O  0.74267104  0.34808978  0.80455242    -0.51700
O63         O  0.70717953  0.44094271  0.90587185    -0.51700
O64         O  0.70976113  0.43376029  0.80642111    -0.50900
O65         O  0.60871004  0.63493934  0.89790365    -0.52100
C66         C  0.65996631  0.67185813  0.80055491     0.80500
O67         O  0.55594677  0.73831294  0.82399941    -0.53200
C68         C  0.57601045  0.64162300  0.91508475     0.80500
C69         C  0.65279331  0.76137996  0.88999935     0.82900
Cd70       Cd  0.60653611  0.69638332  0.85800009     1.37500
O71         O  0.64841288  0.64661086  0.82479489    -0.52100
O72         O  0.66724201  0.72617354  0.88590643    -0.50900
C73         C  0.54808208  0.71050746  0.80090073     0.82900
O74         O  0.61555104  0.76614695  0.88269318    -0.53300
O75         O  0.64998543  0.70845979  0.80489887    -0.51700
O76         O  0.55708639  0.67368406  0.90646268    -0.51700
O77         O  0.56315989  0.67598523  0.80696692    -0.50900
O78         O  0.86345278  0.89112762  0.90056426    -0.52100
C79         C  0.83195715  0.84312339  0.80129820     0.80500
O80         O  0.73380152  0.88430080  0.88419702    -0.53200
C81         C  0.85661582  0.92368228  0.91792114     0.80500
C82         C  0.78633819  0.95186376  0.80212194     0.82900
Cd83       Cd  0.80328424  0.89405162  0.85927442     1.37500
O84         O  0.85646769  0.85784786  0.82467752    -0.52100
O85         O  0.82184959  0.94035309  0.80966488    -0.50900
C86         C  0.73841567  0.84677068  0.89031658     0.82900
O87         O  0.75844430  0.94127286  0.82415118    -0.53300
O88         O  0.79461817  0.84833710  0.80702161    -0.51700
O89         O  0.82492472  0.94297577  0.90882036    -0.51700
O90         O  0.77346031  0.83223335  0.88534140    -0.50900
O91         O  0.92406187  0.82887923  0.60558586    -0.52100
C92         C  0.87706322  0.79817681  0.70567364     0.80500
O93         O  0.91840606  0.69967798  0.62325732    -0.53200
C94         C  0.95718334  0.82277613  0.58892530     0.80500
C95         C  0.98557858  0.75241473  0.70502228     0.82900
Cd96       Cd  0.92793680  0.76942568  0.64772146     1.37500
O97         O  0.89329325  0.82280150  0.68324325    -0.52100
O98         O  0.97354526  0.78785533  0.69785708    -0.50900
C99         C  0.88097339  0.70430434  0.61671924     0.82900
O100        O  0.97553486  0.72466373  0.68261191    -0.53300
O101        O  0.88067171  0.76083236  0.69890721    -0.51700
O102        O  0.97717305  0.79177836  0.59874943    -0.51700
O103        O  0.86643082  0.73942501  0.62131491    -0.50900
O104        O  0.66891035  0.57483496  0.60872313    -0.52100
C105        C  0.70601964  0.62590512  0.70630968     0.80500
O106        O  0.77196762  0.52165889  0.68253666    -0.53200
C107        C  0.67547031  0.54200411  0.59168433     0.80500
C108        C  0.79548791  0.61879189  0.61681336     0.82900
Cd109      Cd  0.73033519  0.57259798  0.64867257     1.37500
O110        O  0.68095507  0.61528942  0.68156379    -0.52100
O111        O  0.76041094  0.63342288  0.62116376    -0.50900
C112        C  0.74413788  0.51390576  0.70563844     0.82900
O113        O  0.80003959  0.58142900  0.62378072    -0.53300
O114        O  0.74240670  0.61500793  0.70244311    -0.51700
O115        O  0.70743474  0.52299524  0.60040719    -0.51700
O116        O  0.70972550  0.52924196  0.69964402    -0.50900
O117        O  0.42331246  0.32898696  0.89784705    -0.52100
C118        C  0.37161029  0.29161612  0.80059983     0.80500
O119        O  0.47605961  0.22602570  0.82396034    -0.53200
C120        C  0.45591112  0.32211428  0.91512505     0.80500
C121        C  0.37914064  0.20227307  0.88999749     0.82900
Cd122      Cd  0.42520513  0.26744772  0.85806052     1.37500
O123        O  0.38229397  0.31674034  0.82527876    -0.52100
O124        O  0.36471598  0.23753972  0.88628657    -0.50900
C125        C  0.48378406  0.25399687  0.80098329     0.82900
O126        O  0.41629669  0.19750570  0.88233876    -0.53300
O127        O  0.38256332  0.25523360  0.80447430    -0.51700
O128        O  0.47465546  0.28991714  0.90659515    -0.51700
O129        O  0.46850849  0.28841012  0.80717565    -0.50900
O130        O  0.17527823  0.10571365  0.82430217    -0.52100
C131        C  0.17531896  0.04032586  0.91786367     0.80500
O132        O  0.27321122  0.02264423  0.82379301    -0.53200
C133        C  0.19985558  0.12111498  0.80134534     0.80500
C134        C  0.29352494  0.11691158  0.89018370     0.82900
Cd135      Cd  0.22852564  0.06989334  0.85909505     1.37500
O136        O  0.16868893  0.07307874  0.90075249    -0.52100
O137        O  0.25847213  0.13150344  0.88539272    -0.50900
C138        C  0.24530160  0.01232184  0.80167523     0.82900
O139        O  0.29810618  0.07942027  0.88383338    -0.53300
O140        O  0.20675163  0.02078602  0.90845372    -0.51700
O141        O  0.23719863  0.11646059  0.80744703    -0.51700
O142        O  0.20984590  0.02400724  0.80920744    -0.50900
O143        O  0.36282754  0.38901035  0.60895870    -0.52100
C144        C  0.32555564  0.33765808  0.70641840     0.80500
O145        O  0.25988316  0.44227414  0.68284468    -0.53200
C146        C  0.35631881  0.42188928  0.59198202     0.80500
C147        C  0.23623951  0.34541892  0.61686186     0.82900
Cd148      Cd  0.30143677  0.39128504  0.64896125     1.37500
O149        O  0.35072108  0.34848514  0.68182984    -0.52100
O150        O  0.27129616  0.33070726  0.62111396    -0.50900
C151        C  0.28759640  0.44972803  0.70613924     0.82900
O152        O  0.23173012  0.38273270  0.62406059    -0.53300
O153        O  0.28915424  0.34846198  0.70243848    -0.51700
O154        O  0.32445075  0.44099234  0.60082780    -0.51700
O155        O  0.32195513  0.43421102  0.70027070    -0.50900
O156        O  0.10781096  0.13544506  0.60547307    -0.52100
C157        C  0.15496240  0.16625665  0.70572406     0.80500
O158        O  0.11340100  0.26465867  0.62351334    -0.53200
C159        C  0.07457513  0.14149237  0.58898654     0.80500
C160        C  0.04627450  0.21144915  0.70502028     0.82900
Cd161      Cd  0.10400543  0.19480370  0.64773281     1.37500
O162        O  0.13929527  0.14160379  0.68298753    -0.52100
O163        O  0.05848144  0.17607041  0.69782959    -0.50900
C164        C  0.15075835  0.26001791  0.61664251     0.82900
O165        O  0.05620737  0.23928260  0.68264797    -0.53300
O166        O  0.15078197  0.20360299  0.69925654    -0.51700
O167        O  0.05455335  0.17240855  0.59897154    -0.51700
O168        O  0.16530058  0.22485587  0.62095804    -0.50900
O169        O  0.36287283  0.57492511  0.89809244    -0.52100
C170        C  0.32579887  0.62618314  0.80064298     0.80500
O171        O  0.25979624  0.52178677  0.82432564    -0.53200
C172        C  0.35633773  0.54205527  0.91507486     0.80500
C173        C  0.23628541  0.61885032  0.89011380     0.82900
Cd174      Cd  0.30143995  0.57274671  0.85816272     1.37500
O175        O  0.35087455  0.61539190  0.82531390    -0.52100
O176        O  0.27139215  0.63346152  0.88590687    -0.50900
C177        C  0.28755065  0.51416962  0.80111208     0.82900
O178        O  0.23170485  0.58153306  0.88296693    -0.53300
O179        O  0.28937569  0.61542074  0.80455079    -0.51700
O180        O  0.32438676  0.52304062  0.90632163    -0.51700
O181        O  0.32193834  0.52960328  0.80700913    -0.50900
O182        O  0.10740167  0.82888018  0.90120072    -0.52100
C183        C  0.15453055  0.79820315  0.80121954     0.80500
O184        O  0.11330552  0.69966732  0.88379678    -0.53200
C185        C  0.07441506  0.82258786  0.91802513     0.80500
C186        C  0.04604346  0.75230222  0.80189912     0.82900
Cd187      Cd  0.10370339  0.76933669  0.85917585     1.37500
O188        O  0.13840085  0.82278710  0.82374676    -0.52100
O189        O  0.05764174  0.78781246  0.80937838    -0.50900
C190        C  0.15076290  0.70431019  0.89020869     0.82900
O191        O  0.05650994  0.72442859  0.82401524    -0.53300
O192        O  0.15082331  0.76084657  0.80787451    -0.51700
O193        O  0.05457963  0.79143304  0.90834841    -0.51700
O194        O  0.16529602  0.73941296  0.88547162    -0.50900
O195        O  0.17511281  0.85812328  0.68235945    -0.52100
C196        C  0.17500710  0.92360599  0.58890675     0.80500
O197        O  0.27299319  0.94165216  0.68250377    -0.53200
C198        C  0.19964548  0.84314779  0.70558515     0.80500
C199        C  0.29326291  0.84683163  0.61658860     0.82900
Cd200      Cd  0.22831732  0.89405355  0.64759120     1.37500
O201        O  0.16834183  0.89089967  0.60608168    -0.52100
O202        O  0.25817766  0.83231737  0.62137979    -0.50900
C203        C  0.24516724  0.95190614  0.70474176     0.82900
O204        O  0.29790566  0.88432002  0.62290137    -0.53300
O205        O  0.20651651  0.94307962  0.59820473    -0.51700
O206        O  0.23699335  0.84807294  0.69967884    -0.51700
O207        O  0.20972600  0.94001045  0.69743671    -0.50900
O208        O  0.42314320  0.63497755  0.60905336    -0.52100
C209        C  0.37193487  0.67211110  0.70642429     0.80500
O210        O  0.47587546  0.73845280  0.68282904    -0.53200
C211        C  0.45578952  0.64170598  0.59179939     0.80500
C212        C  0.37890366  0.76145410  0.61686901     0.82900
Cd213      Cd  0.42526926  0.69651755  0.64885557     1.37500
O214        O  0.38318799  0.64688460  0.68204653    -0.52100
O215        O  0.36443680  0.72628388  0.62115792    -0.50900
C216        C  0.48386050  0.71059053  0.70583821     0.82900
O217        O  0.41619672  0.76620287  0.62396942    -0.53300
O218        O  0.38220954  0.70864732  0.70219829    -0.51700
O219        O  0.47465004  0.67383344  0.60033082    -0.51700
O220        O  0.46883272  0.67605623  0.69972199    -0.50900
C221        C  0.60047033  0.50903553  0.50523367     0.03200
C222        C  0.48861381  0.56666704  0.50531347     0.03200
C223        C  0.54291370  0.39708959  0.50521886     0.03200
C224        C  0.43105616  0.45473086  0.50528348     0.03200
O225        O  0.86279149  0.88913668  0.10876641    -0.52100
C226        C  0.82571437  0.83798927  0.20631165     0.80500
O227        O  0.75967859  0.94224101  0.18261975    -0.53200
C228        C  0.85623215  0.92197508  0.09174012     0.80500
C229        C  0.73620304  0.84520808  0.11682134     0.82900
Cd230      Cd  0.80136076  0.89135043  0.14872609     1.37500
O231        O  0.85079218  0.84872661  0.18161829    -0.52100
O232        O  0.77128405  0.83057238  0.12113014    -0.50900
C233        C  0.78749369  0.95000255  0.20572862     0.82900
O234        O  0.73164964  0.88255562  0.12385377    -0.53300
O235        O  0.78930110  0.84878000  0.20240618    -0.51700
O236        O  0.82426663  0.94097813  0.10047481    -0.51700
O237        O  0.82191579  0.93468710  0.19973399    -0.50900
O238        O  0.60776007  0.63513665  0.10548766    -0.52100
C239        C  0.65474403  0.66573614  0.20563121     0.80500
O240        O  0.61331319  0.76428003  0.12324977    -0.53200
C241        C  0.57458654  0.64119549  0.08890387     0.80500
C242        C  0.54624131  0.71152080  0.20502950     0.82900
Cd243      Cd  0.60385362  0.69451770  0.14770380     1.37500
O244        O  0.63844072  0.64111907  0.18324178    -0.52100
O245        O  0.55823071  0.67607386  0.19782742    -0.50900
C246        C  0.65074671  0.75968379  0.11669122     0.82900
O247        O  0.55631969  0.73928821  0.18264789    -0.53300
O248        O  0.65120264  0.70307956  0.19883080    -0.51700
O249        O  0.55455848  0.67214070  0.09880220    -0.51700
O250        O  0.66531840  0.72457225  0.12126882    -0.50900
O251        O  0.66827267  0.57276108  0.40045142    -0.52100
C252        C  0.69986058  0.62076596  0.30123694     0.80500
O253        O  0.79795727  0.57963625  0.38416530    -0.53200
C254        C  0.67511740  0.54024352  0.41786194     0.80500
C255        C  0.74544129  0.51199022  0.30208241     0.82900
Cd256      Cd  0.72849418  0.56983102  0.35921987     1.37500
O257        O  0.67534198  0.60606660  0.32462644    -0.52100
O258        O  0.70994018  0.52356510  0.30958587    -0.50900
C259        C  0.79331304  0.61716497  0.39027373     0.82900
O260        O  0.77332098  0.52253150  0.32414343    -0.53300
O261        O  0.73719688  0.61551598  0.30694636    -0.51700
O262        O  0.70683448  0.52096049  0.40881275    -0.51700
O263        O  0.75826413  0.63167784  0.38527343    -0.50900
O264        O  0.88320884  0.81728533  0.32484160    -0.52100
C265        C  0.95570453  0.82234775  0.41510587     0.80500
O266        O  0.91615065  0.69781879  0.38271180    -0.53200
C267        C  0.87178068  0.79204318  0.30054849     0.80500
C268        C  0.98366434  0.75351920  0.30094690     0.82900
Cd269      Cd  0.92518418  0.76758237  0.35803003     1.37500
O270        O  0.92300678  0.82903118  0.39792559    -0.52100
O271        O  0.96856375  0.78803127  0.30701857    -0.50900
C272        C  0.87890587  0.70258962  0.39001086     0.82900
O273        O  0.97581725  0.72570137  0.32404089    -0.53300
O274        O  0.97462846  0.79028489  0.40648654    -0.51700
O275        O  0.88188227  0.75546861  0.30484685    -0.51700
O276        O  0.86446415  0.73779926  0.38592363    -0.50900
O277        O  0.35661642  0.60588895  0.18221188    -0.52100
C278        C  0.35668018  0.54032601  0.08887769     0.80500
O279        O  0.25870005  0.52228846  0.18246978    -0.53200
C280        C  0.33211804  0.62084484  0.20548206     0.80500
C281        C  0.23841508  0.61714993  0.11658135     0.82900
Cd282      Cd  0.30336480  0.56991284  0.14755191     1.37500
O283        O  0.36328460  0.57309027  0.10597700    -0.52100
O284        O  0.27349462  0.63166476  0.12139224    -0.50900
C285        C  0.28650377  0.51212432  0.20476272     0.82900
O286        O  0.23377720  0.57965392  0.12285978    -0.53300
O287        O  0.32522351  0.52080372  0.09824458    -0.51700
O288        O  0.29476206  0.61588057  0.19965019    -0.51700
O289        O  0.32193517  0.52407829  0.19749276    -0.50900
O290        O  0.10854530  0.82903325  0.10906274    -0.52100
C291        C  0.15976636  0.79190777  0.20642472     0.80500
O292        O  0.05580133  0.72559948  0.18283482    -0.53200
C293        C  0.07589474  0.82229974  0.09182231     0.80500
C294        C  0.15279068  0.70254501  0.11688433     0.82900
Cd295      Cd  0.10643717  0.76749719  0.14886363     1.37500
O296        O  0.14859112  0.81711158  0.18199823    -0.52100
O297        O  0.16725961  0.73771742  0.12114914    -0.50900
C298        C  0.04785564  0.75345915  0.20585900     0.82900
O299        O  0.11550188  0.69779988  0.12400817    -0.53300
O300        O  0.14941739  0.75538557  0.20225143    -0.51700
O301        O  0.05703732  0.79017306  0.10036416    -0.51700
O302        O  0.06291391  0.78798236  0.19974977    -0.50900
O303        O  0.16893134  0.88905418  0.39810061    -0.52100
C304        C  0.20592123  0.83783507  0.30063507     0.80500
O305        O  0.27206678  0.94213478  0.32426050    -0.53200
C306        C  0.17545433  0.92192471  0.41508380     0.80500
C307        C  0.29552173  0.84515017  0.39007407     0.82900
Cd308      Cd  0.23035503  0.89125409  0.35814400     1.37500
O309        O  0.18084974  0.84870350  0.32528352    -0.52100
O310        O  0.26041405  0.83053833  0.38587798    -0.50900
C311        C  0.24430688  0.94980458  0.30107178     0.82900
O312        O  0.30009837  0.88246864  0.38292950    -0.53300
O313        O  0.24236769  0.84850391  0.30456592    -0.51700
O314        O  0.20739893  0.94095056  0.40632360    -0.51700
O315        O  0.20989197  0.93444887  0.30700992    -0.50900
O316        O  0.42425610  0.63507129  0.40117593    -0.52100
C317        C  0.37726299  0.66576099  0.30110934     0.80500
O318        O  0.41847529  0.76427227  0.38373168    -0.53200
C319        C  0.45724843  0.64134440  0.41799416     0.80500
C320        C  0.48574998  0.71162386  0.30189853     0.82900
Cd321      Cd  0.42802907  0.69459285  0.35912150     1.37500
O322        O  0.39343214  0.64115983  0.32359458    -0.52100
O323        O  0.47420262  0.67610435  0.30940999    -0.50900
C324        C  0.38101363  0.75965778  0.39014692     0.82900
O325        O  0.47520352  0.73951351  0.32396592    -0.53300
O326        O  0.38089545  0.70310958  0.30783332    -0.51700
O327        O  0.47711029  0.67247793  0.40830339    -0.51700
O328        O  0.36645438  0.72456448  0.38541538    -0.50900
O329        O  0.36315812  0.39102038  0.40060887    -0.52100
C330        C  0.33183389  0.34294429  0.30126918     0.80500
O331        O  0.23366485  0.38448091  0.38383526    -0.53200
C332        C  0.35642743  0.42367148  0.41784858     0.80500
C333        C  0.28639218  0.45174880  0.30171246     0.82900
Cd334      Cd  0.30321699  0.39412581  0.35907515     1.37500
O335        O  0.35642497  0.35824319  0.32426844    -0.52100
O336        O  0.32185599  0.44006829  0.30921569    -0.50900
C337        C  0.23829929  0.34699159  0.39016017     0.82900
O338        O  0.25849985  0.44140915  0.32384620    -0.53300
O339        O  0.29449640  0.34769511  0.30734083    -0.51700
O340        O  0.32490250  0.44312752  0.40855499    -0.51700
O341        O  0.27336979  0.33245023  0.38534593    -0.50900
O342        O  0.14967208  0.14716981  0.32533591    -0.52100
C343        C  0.07588199  0.14179796  0.41510861     0.80500
O344        O  0.11556778  0.26635473  0.38233055    -0.53200
C345        C  0.16024839  0.17225805  0.30058487     0.80500
C346        C  0.04804893  0.20985686  0.30095806     0.82900
Cd347      Cd  0.10663349  0.19642902  0.35803117     1.37500
O348        O  0.10844445  0.13486460  0.39778951    -0.52100
O349        O  0.06333454  0.17544779  0.30715075    -0.50900
C350        C  0.15272853  0.26157900  0.38995920     0.82900
O351        O  0.05577531  0.23783448  0.32392685    -0.53300
O352        O  0.05718868  0.17403201  0.40660484    -0.51700
O353        O  0.14916939  0.20861335  0.30437430    -0.51700
O354        O  0.16714893  0.22631545  0.38621555    -0.50900
O355        O  0.42389090  0.32850889  0.10539129    -0.52100
C356        C  0.37670025  0.29775400  0.20565086     0.74100
O357        O  0.41841329  0.19930553  0.12351611    -0.53200
C358        C  0.45716922  0.32249810  0.08896035     0.80500
C359        C  0.48541721  0.25270107  0.20503479     0.82900
Cd360      Cd  0.42771194  0.26919907  0.14770035     1.37500
O361        O  0.39229022  0.32239403  0.18285558    -0.52100
O362        O  0.47314465  0.28805206  0.19782505    -0.50900
C363        C  0.38105698  0.20389997  0.11661946     0.82900
O364        O  0.47555974  0.22483777  0.18266705    -0.53300
O365        O  0.38097258  0.26040302  0.19925447    -0.51700
O366        O  0.47721896  0.29162110  0.09899601    -0.51700
O367        O  0.36647381  0.23904851  0.12091062    -0.50900
O368        O  0.16902385  0.07500411  0.10884440    -0.52100
C369        C  0.20627624  0.12622021  0.20638653     0.80500
O370        O  0.27196625  0.02165013  0.18276062    -0.53200
C371        C  0.17544934  0.04206892  0.09193053     0.80500
C372        C  0.29560279  0.11847030  0.11679365     0.82900
Cd373      Cd  0.23037805  0.07262611  0.14889304     1.37500
O374        O  0.18106846  0.11529354  0.18187525    -0.52100
O375        O  0.26056043  0.13320676  0.12108099    -0.50900
C376        C  0.24426324  0.01418452  0.20606615     0.82900
O377        O  0.30008014  0.08114047  0.12394253    -0.53300
O378        O  0.24270111  0.11553905  0.20230682    -0.51700
O379        O  0.20726075  0.02289878  0.10082069    -0.51700
O380        O  0.20989576  0.02968354  0.20020744    -0.50900
O381        O  0.63930064  0.32239938  0.32389652    -0.52100
C382        C  0.57444325  0.32247490  0.41789471     0.80500
O383        O  0.55632497  0.22471083  0.32399228    -0.53200
C384        C  0.65478911  0.29774387  0.30105683     0.80500
C385        C  0.65070772  0.20409461  0.39022734     0.82900
Cd386      Cd  0.60387546  0.26922877  0.35910353     1.37500
O387        O  0.60752069  0.32872498  0.40120075    -0.52100
O388        O  0.66525845  0.23923072  0.38575284    -0.50900
C389        C  0.54609799  0.25265750  0.30185387     0.82900
O390        O  0.61332088  0.19945358  0.38349317    -0.53300
O391        O  0.55458079  0.29138397  0.40809556    -0.51700
O392        O  0.65043744  0.26039904  0.30743039    -0.51700
O393        O  0.55800791  0.28807783  0.30929182    -0.50900
O394        O  0.86267047  0.07527141  0.39808135    -0.52100
C395        C  0.82546723  0.12654136  0.30050374     0.80500
O396        O  0.75992490  0.02175962  0.32409850    -0.53200
C397        C  0.85630255  0.04227078  0.41490693     0.80500
C398        C  0.73617623  0.11867431  0.39008200     0.82900
Cd399      Cd  0.80139573  0.07286447  0.35794305     1.37500
O400        O  0.85071636  0.11546420  0.32492218    -0.52100
O401        O  0.77128887  0.13332845  0.38604296    -0.50900
C402        C  0.78758535  0.01447085  0.30070183     0.82900
O403        O  0.73161151  0.08141774  0.38266580    -0.53300
O404        O  0.78901319  0.11599836  0.30467360    -0.51700
O405        O  0.82455783  0.02304107  0.40592284    -0.51700
O406        O  0.82189179  0.03013954  0.30648050    -0.50900
O407        O  0.92332643  0.13489763  0.10907583    -0.52100
C408        C  0.87152909  0.17245974  0.20627703     0.80500
O409        O  0.97605260  0.23788808  0.18289261    -0.53200
C410        C  0.95590328  0.14179775  0.09176597     0.80500
C411        C  0.87909496  0.26165627  0.11683490     0.82900
Cd412      Cd  0.92516294  0.19650536  0.14879620     1.37500
O413        O  0.88203753  0.14733957  0.18152735    -0.52100
O414        O  0.86461827  0.22643479  0.12072134    -0.50900
C415        C  0.98376902  0.20990060  0.20585551     0.82900
O416        O  0.91629520  0.26638256  0.12433173    -0.53300
O417        O  0.88269980  0.20878620  0.20247980    -0.51700
O418        O  0.97460371  0.17403314  0.10025040    -0.51700
O419        O  0.96845545  0.17550384  0.19966537    -0.50900
O420        O  0.67522780  0.35838442  0.18254208    -0.52100
C421        C  0.67529807  0.42360685  0.08898065     0.80500
O422        O  0.77320507  0.44158710  0.18278267    -0.53200
C423        C  0.69977836  0.34287027  0.20545514     0.80500
C424        C  0.79352075  0.34703966  0.11664699     0.82900
Cd425      Cd  0.72852876  0.39408123  0.14772880     1.37500
O426        O  0.66872666  0.39082288  0.10605776    -0.52100
O427        O  0.75845454  0.33246827  0.12140796    -0.50900
C428        C  0.74541613  0.45163667  0.20513666     0.82900
O429        O  0.79812642  0.38451715  0.12304155    -0.53300
O430        O  0.70667150  0.44321335  0.09843052    -0.51700
O431        O  0.73713315  0.34740825  0.19931934    -0.51700
O432        O  0.70999121  0.43967540  0.19786367    -0.50900
C433        C  0.85309705  0.29521314  0.10773901    -0.07500
C434        C  0.82711155  0.32101430  0.10770683    -0.09100
C435        C  0.85062470  0.15993248  0.23887572    -0.07500
C436        C  0.83796624  0.14734360  0.26783913    -0.09100
C437        C  0.67388952  0.31131074  0.26782716    -0.07500
C438        C  0.68608843  0.32356629  0.23854390    -0.09100
C439        C  0.70254121  0.14454472  0.39922063    -0.07500
C440        C  0.67669516  0.17048567  0.39922407    -0.09100
C441        C  0.50758296  0.24507783  0.23851391    -0.07500
C442        C  0.52394929  0.24506434  0.26835955    -0.09100
C443        C  0.35511935  0.17024287  0.10764874    -0.07500
C444        C  0.32926805  0.14430623  0.10766040    -0.09100
C445        C  0.00716427  0.21652461  0.23876609    -0.07500
C446        C  0.02467134  0.21650753  0.26804100    -0.09100
C447        C  0.18112202  0.15966703  0.26799226    -0.07500
C448        C  0.19376218  0.14703406  0.23903888    -0.09100
C449        C  0.34546653  0.32362684  0.26816825    -0.07500
C450        C  0.35761160  0.31134325  0.23887663    -0.09100
C451        C  0.20473175  0.32092773  0.39908420    -0.07500
C452        C  0.17875128  0.29512078  0.39904461    -0.09100
C453        C  0.25116951  0.97323862  0.26820883    -0.07500
C454        C  0.25114632  0.99079674  0.23895300    -0.09100
C455        C  0.35498388  0.79325695  0.39909983    -0.07500
C456        C  0.32913754  0.81920339  0.39911570    -0.09100
C457        C  0.19323674  0.81708796  0.26800792    -0.07500
C458        C  0.18054750  0.80449069  0.23906322    -0.09100
C459        C  0.27874006  0.49002222  0.23825747    -0.07500
C460        C  0.27870657  0.47375639  0.26815091    -0.09100
C461        C  0.34590119  0.64000924  0.23860201    -0.07500
C462        C  0.35816270  0.65218923  0.26788674    -0.09100
C463        C  0.17885649  0.66903954  0.10776926    -0.07500
C464        C  0.20484726  0.64323921  0.10770483    -0.09100
C465        C  0.00699131  0.74661441  0.26803591    -0.07500
C466        C  0.02448307  0.74659101  0.23874875    -0.09100
C467        C  0.75318045  0.47365500  0.23867527    -0.07500
C468        C  0.75318303  0.48991508  0.26856993    -0.09100
C469        C  0.82685517  0.64327691  0.39917220    -0.07500
C470        C  0.85284221  0.66908056  0.39911659    -0.09100
C471        C  0.50783457  0.71935938  0.26839109    -0.07500
C472        C  0.52415070  0.71932867  0.23851941    -0.09100
C473        C  0.67386496  0.65218667  0.23885009    -0.07500
C474        C  0.68610644  0.63997756  0.26813050    -0.09100
C475        C  0.78068163  0.97348370  0.23857395    -0.07500
C476        C  0.78071962  0.99107012  0.26781710    -0.09100
C477        C  0.85101256  0.80462903  0.26790435    -0.07500
C478        C  0.83835844  0.81723888  0.23895122    -0.09100
C479        C  0.70258715  0.81926619  0.10776597    -0.07500
C480        C  0.67674718  0.79331300  0.10776084    -0.09100
C481        C  0.38334449  0.43745715  0.44694123    -0.07500
C482        C  0.40585484  0.44654625  0.47221632    -0.09100
C483        C  0.46748491  0.42832187  0.50514569    -0.07500
C484        C  0.50020693  0.41124646  0.50522290    -0.09100
C485        C  0.55129495  0.37196323  0.47214003    -0.07500
C486        C  0.56057460  0.34945453  0.44691434    -0.09100
C487        C  0.46228059  0.53018615  0.50529996    -0.07500
C488        C  0.44525730  0.49743146  0.50537953    -0.09100
C489        C  0.47102838  0.61433731  0.44702204    -0.07500
C490        C  0.48025611  0.59180405  0.47224211    -0.09100
C491        C  0.56403632  0.53543226  0.50518853    -0.07500
C492        C  0.53131420  0.55250295  0.50531074    -0.09100
C493        C  0.58627682  0.46632823  0.50532033    -0.07500
C494        C  0.56924339  0.43357664  0.50521987    -0.09100
C495        C  0.62559910  0.51727027  0.47213111    -0.07500
C496        C  0.64812413  0.52641759  0.44688229    -0.09100
C497        C  0.47023425  0.61426307  0.56340234    -0.07500
C498        C  0.48003164  0.59170917  0.53838367    -0.09100
C499        C  0.32683293  0.82074773  0.60769846    -0.07500
C500        C  0.35283100  0.79495435  0.60775540    -0.09100
C501        C  0.18591004  0.82399575  0.73873097    -0.07500
C502        C  0.17365743  0.81180681  0.76801763    -0.09100
C503        C  0.33846233  0.64694507  0.76801529    -0.07500
C504        C  0.35114926  0.65954279  0.73906813    -0.09100
C505        C  0.20267295  0.64479570  0.89916960    -0.07500
C506        C  0.17681674  0.67073168  0.89916091    -0.09100
C507        C  0.38367669  0.43630833  0.56350923    -0.07500
C508        C  0.40610401  0.44609327  0.53839599    -0.09100
C509        C  0.28073228  0.47312685  0.73902214    -0.07500
C510        C  0.28070790  0.49070463  0.76826716    -0.09100
C511        C  0.20259433  0.31957210  0.60770816    -0.07500
C512        C  0.17673714  0.29364331  0.60767871    -0.09100
C513        C  0.25295899  0.99031701  0.76810681    -0.07500
C514        C  0.25291758  0.97403634  0.73822109    -0.09100
C515        C  0.18620634  0.14042945  0.76825020    -0.07500
C516        C  0.17404783  0.15269407  0.73895847    -0.09100
C517        C  0.35075063  0.30418822  0.76799572    -0.07500
C518        C  0.33810062  0.31682261  0.73904800    -0.09100
C519        C  0.32712909  0.14292729  0.89911023    -0.07500
C520        C  0.35312342  0.16872177  0.89907643    -0.09100
C521        C  0.62551183  0.51767278  0.53828597    -0.07500
C522        C  0.64803730  0.52751670  0.56330370    -0.09100
C523        C  0.00767557  0.74459431  0.73850568    -0.07500
C524        C  0.02398285  0.74455963  0.76838055    -0.09100
C525        C  0.85494606  0.67069744  0.60778652    -0.07500
C526        C  0.82910134  0.64474889  0.60777981    -0.09100
C527        C  0.84571811  0.82392471  0.76818678    -0.07500
C528        C  0.85795255  0.81172333  0.73889994    -0.09100
C529        C  0.52475285  0.71743310  0.76799607    -0.07500
C530        C  0.50724658  0.71746389  0.73871748    -0.09100
C531        C  0.68073524  0.65925680  0.76791400    -0.07500
C532        C  0.69338354  0.64664434  0.73895842    -0.09100
C533        C  0.67884905  0.79488906  0.89912180    -0.07500
C534        C  0.70484662  0.82068247  0.89919571    -0.09100
C535        C  0.75088990  0.47285284  0.76773447    -0.07500
C536        C  0.75092850  0.49042284  0.73848387    -0.09100
C537        C  0.00773803  0.21914044  0.76833772    -0.07500
C538        C  0.02410231  0.21912859  0.73848832    -0.09100
C539        C  0.85503726  0.29351668  0.89920010    -0.07500
C540        C  0.82918622  0.31945133  0.89917699    -0.09100
C541        C  0.77859246  0.99018249  0.73870767    -0.07500
C542        C  0.77860053  0.97392266  0.76860213    -0.09100
C543        C  0.85787546  0.15249507  0.76794784    -0.07500
C544        C  0.84567111  0.14022732  0.73867286    -0.09100
C545        C  0.55150027  0.37204806  0.53828966    -0.07500
C546        C  0.56133845  0.34952881  0.56332125    -0.09100
C547        C  0.52462034  0.24732541  0.73876275    -0.07500
C548        C  0.50714207  0.24733563  0.76805400    -0.09100
C549        C  0.68106072  0.30401128  0.73887142    -0.07500
C550        C  0.69372238  0.31659555  0.76783344    -0.09100
C551        C  0.67863476  0.16866756  0.60777244    -0.07500
C552        C  0.70461762  0.14286188  0.60777282    -0.09100
C553        C  0.48022423  0.37200055  0.96858776    -0.07500
C554        C  0.47041921  0.34947742  0.94355233    -0.09100
C555        C  0.47105642  0.34949510  0.05996407    -0.07500
C556        C  0.48036553  0.37198588  0.03473529    -0.09100
C557        C  0.53150286  0.41119199  0.00164363    -0.07500
C558        C  0.56423996  0.42823399  0.00169989    -0.09100
C559        C  0.64805872  0.43616139  0.94332169    -0.07500
C560        C  0.62562872  0.44595597  0.96843002    -0.09100
C561        C  0.64837826  0.43737236  0.05989030    -0.07500
C562        C  0.62587540  0.44644061  0.03460824    -0.09100
C563        C  0.46248145  0.43356754  0.00158723    -0.07500
C564        C  0.44546457  0.46632545  0.00145697    -0.09100
C565        C  0.40629256  0.51768872  0.96845799    -0.07500
C566        C  0.38377596  0.52754069  0.94343711    -0.09100
C567        C  0.38365352  0.52647733  0.05985722    -0.07500
C568        C  0.40616498  0.51730058  0.03461121    -0.09100
C569        C  0.56950265  0.53008252  0.00154274    -0.07500
C570        C  0.58650723  0.49732122  0.00144133    -0.09100
C571        C  0.46775328  0.53540499  0.00160161    -0.07500
C572        C  0.50048867  0.55244439  0.00152810    -0.09100
C573        C  0.55179335  0.59164586  0.96851757    -0.07500
C574        C  0.56157761  0.61420036  0.94349787    -0.09100
C575        C  0.55155634  0.59166464  0.03466070    -0.07500
C576        C  0.56079262  0.61417464  0.05989417    -0.09100
C577        C  0.14839133  0.02651582  0.94694076    -0.07500
C578        C  0.12587284  0.01740990  0.97220715    -0.09100
C579        C  0.12562185  0.01786234  0.03838255    -0.07500
C580        C  0.14806301  0.02765534  0.06348046    -0.09100
C581        C  0.06942499  0.93377421  0.00529037    -0.07500
C582        C  0.08646276  0.96652185  0.00536820    -0.09100
C583        C  0.05140428  0.87214762  0.97225976    -0.07500
C584        C  0.06061950  0.84959880  0.94704628    -0.09100
C585        C  0.05165008  0.87227732  0.03840020    -0.07500
C586        C  0.06144501  0.84973384  0.06342482    -0.09100
C587        C  0.96766220  0.92856758  0.00522955    -0.07500
C588        C  0.00037981  0.91148996  0.00533751    -0.09100
C589        C  0.90610317  0.94671497  0.97218384    -0.07500
C590        C  0.88359036  0.93754114  0.94693821    -0.09100
C591        C  0.90619058  0.94633007  0.03833985    -0.07500
C592        C  0.88366599  0.93647676  0.06336002    -0.09100
C593        C  0.96247529  0.03041641  0.00523212    -0.07500
C594        C  0.94542740  0.99767158  0.00534981    -0.09100
C595        C  0.03152500  0.05271260  0.00521759    -0.07500
C596        C  0.06424317  0.03563184  0.00513742    -0.09100
C597        C  0.97119640  0.11456418  0.94694199    -0.07500
C598        C  0.98045781  0.09203579  0.97215806    -0.09100
C599        C  0.97043519  0.11442938  0.06334808    -0.07500
C600        C  0.98026273  0.09192176  0.03830554    -0.09100
C601        C  0.06136128  0.11446255  0.44355519    -0.07500
C602        C  0.05155018  0.09196052  0.46860614    -0.09100
C603        C  0.05140347  0.09199566  0.53475795    -0.07500
C604        C  0.06070409  0.11449148  0.55998573    -0.09100
C605        C  0.00026239  0.05278681  0.50167247    -0.07500
C606        C  0.96752100  0.03575147  0.50172449    -0.09100
C607        C  0.90612060  0.01805283  0.46846010    -0.07500
C608        C  0.88368066  0.02785077  0.44336201    -0.09100
C609        C  0.88337809  0.02660339  0.55992553    -0.07500
C610        C  0.90588205  0.01754655  0.53463768    -0.09100
C611        C  0.94523615  0.96666778  0.50145392    -0.07500
C612        C  0.96223230  0.93390155  0.50155298    -0.09100
C613        C  0.97992580  0.87233024  0.46852929    -0.07500
C614        C  0.97013702  0.84977326  0.44351461    -0.09100
C615        C  0.97095899  0.84980487  0.55991074    -0.07500
C616        C  0.98018114  0.87231767  0.53467288    -0.09100
C617        C  0.06398279  0.92856223  0.50158787    -0.07500
C618        C  0.03124338  0.91152978  0.50151770    -0.09100
C619        C  0.08629101  0.99763657  0.50147260    -0.07500
C620        C  0.06928140  0.03039925  0.50161394    -0.09100
C621        C  0.14800609  0.93642926  0.44345008    -0.07500
C622        C  0.12547363  0.94627350  0.46846686    -0.09100
C623        C  0.14804534  0.93744657  0.55987734    -0.07500
C624        C  0.12555418  0.94663423  0.53462268    -0.09100
loop_ 
_geom_bond_atom_site_label_1 
_geom_bond_atom_site_label_2 
_geom_bond_distance 
_geom_bond_site_symmetry_2 
_ccdc_geom_bond_type 
C1          C617   1.484       .  S
C1          C619   1.484       .  S
C1          C622   1.481       .  S
C1          C624   1.481       .  S
C2          C612   1.484       .  S
C2          C613   1.481       .  S
C2          C616   1.481       .  S
C2          C618   1.484   1_655  S
C3          C606   1.484       .  S
C3          C607   1.481       .  S
C3          C610   1.481       .  S
C3          C611   1.484   1_545  S
C4          C602   1.481       .  S
C4          C603   1.481       .  S
C4          C605   1.484       .  S
C4          C620   1.484       .  S
C5          C593   1.484       .  S
C5          C595   1.484   1_655  S
C5          C598   1.481   1_554  S
C5          C600   1.481       .  S
C6          C587   1.484       .  S
C6          C589   1.481   1_554  S
C6          C591   1.481       .  S
C6          C594   1.484       .  S
C7          C581   1.484       .  S
C7          C583   1.481   1_554  S
C7          C585   1.481       .  S
C7          C588   1.484       .  S
C8          C578   1.481   1_554  S
C8          C579   1.481       .  S
C8          C582   1.484   1_545  S
C8          C596   1.484       .  S
C9          C569   1.484       .  S
C9          C572   1.484       .  S
C9          C573   1.480   1_554  S
C9          C575   1.481       .  S
C10         C564   1.484       .  S
C10         C565   1.481   1_554  S
C10         C568   1.481       .  S
C10         C571   1.484       .  S
C11         C558   1.484       .  S
C11         C560   1.481   1_554  S
C11         C562   1.481       .  S
C11         C570   1.484       .  S
C12         C553   1.481   1_554  S
C12         C556   1.481       .  S
C12         C557   1.484       .  S
C12         C563   1.484       .  S
O13          C16   1.268       .  A
O13         Cd18   2.460       .  S
C14          O23   1.267       .  A
C14          O19   1.264       .  A
C14         C546   1.449       .  S
O15          C21   1.266       .  A
O15         Cd18   2.485       .  S
C16          O24   1.261       .  A
C16         C549   1.427       .  S
C17          O22   1.267       .  A
C17          O20   1.262       .  A
C17         C547   1.435       .  S
Cd18         O25   2.448       .  S
Cd18         O24   2.428       .  S
Cd18         O23   2.508       .  S
Cd18         O19   2.489       .  S
Cd18         O22   2.490       .  S
Cd18         O20   2.430       .  S
C21          O25   1.264       .  A
C21         C551   1.438       .  S
O26          C29   1.267       .  A
O26         Cd31   2.462       .  S
C27          O36   1.267       .  A
C27          O32   1.264       .  A
C27         C609   1.450       .  S
O28          C34   1.266       .  A
O28         Cd31   2.497       .  S
C29          O37   1.261       .  A
C29         C544   1.429       .  S
C30          O35   1.266       .  A
C30          O33   1.264       .  A
C30         C552   1.438       .  S
Cd31         O38   2.433       .  S
Cd31         O37   2.435       .  S
Cd31         O36   2.515       .  S
Cd31         O32   2.485       .  S
Cd31         O35   2.484       .  S
Cd31         O33   2.451       .  S
C34          O38   1.261       .  A
C34         C541   1.437   1_545  S
O39          C42   1.267       .  A
O39         Cd44   2.462       .  S
C40          O49   1.267       .  A
C40          O45   1.264       .  A
C40         C597   1.450       .  S
O41          C47   1.266       .  A
O41         Cd44   2.496       .  S
C42          O50   1.261       .  A
C42         C543   1.429       .  S
C43          O48   1.266       .  A
C43          O46   1.264       .  A
C43         C539   1.438       .  S
Cd44         O51   2.433       .  S
Cd44         O50   2.437       .  S
Cd44         O49   2.514       .  S
Cd44         O45   2.486       .  S
Cd44         O48   2.484       .  S
Cd44         O46   2.451       .  S
C47          O51   1.261       .  A
C47         C537   1.437   1_655  S
O52          C55   1.264       .  A
O52         Cd57   2.490       .  S
C53          O62   1.261       .  A
C53          O58   1.268       .  A
C53         C550   1.427       .  S
O54          C60   1.267       .  A
O54         Cd57   2.492       .  S
C55          O63   1.267       .  A
C55         C559   1.449       .  S
C56          O61   1.266       .  A
C56          O59   1.263       .  A
C56         C540   1.438       .  S
Cd57         O64   2.430       .  S
Cd57         O63   2.509       .  S
Cd57         O62   2.429       .  S
Cd57         O58   2.459       .  S
Cd57         O61   2.486       .  S
Cd57         O59   2.448       .  S
C60          O64   1.262       .  A
C60         C535   1.436       .  S
O65          C68   1.264       .  A
O65         Cd70   2.488       .  S
C66          O75   1.261       .  A
C66          O71   1.268       .  A
C66         C531   1.427       .  S
O67          C73   1.267       .  A
O67         Cd70   2.492       .  S
C68          O76   1.267       .  A
C68         C574   1.449       .  S
C69          O74   1.266       .  A
C69          O72   1.264       .  A
C69         C533   1.438       .  S
Cd70         O77   2.430       .  S
Cd70         O76   2.509       .  S
Cd70         O75   2.429       .  S
Cd70         O71   2.458       .  S
Cd70         O74   2.485       .  S
Cd70         O72   2.448       .  S
C73          O77   1.261       .  A
C73         C529   1.436       .  S
O78          C81   1.264       .  A
O78         Cd83   2.486       .  S
C79          O88   1.261       .  A
C79          O84   1.267       .  A
C79         C527   1.429       .  S
O80          C86   1.266       .  A
O80         Cd83   2.484       .  S
C81          O89   1.267       .  A
C81         C590   1.450       .  S
C82          O87   1.266       .  A
C82          O85   1.261       .  A
C82         C542   1.437       .  S
Cd83         O90   2.452       .  S
Cd83         O89   2.515       .  S
Cd83         O88   2.434       .  S
Cd83         O84   2.463       .  S
Cd83         O87   2.495       .  S
Cd83         O85   2.434       .  S
C86          O90   1.264       .  A
C86         C534   1.439       .  S
O91          C94   1.264       .  A
O91         Cd96   2.486       .  S
C92         O101   1.261       .  A
C92          O97   1.266       .  A
C92         C528   1.429       .  S
O93          C99   1.267       .  A
O93         Cd96   2.484       .  S
C94         O102   1.267       .  A
C94         C615   1.450       .  S
C95         O100   1.266       .  A
C95          O98   1.261       .  A
C95         C523   1.437   1_655  S
Cd96        O103   2.451       .  S
Cd96        O102   2.514       .  S
Cd96        O101   2.437       .  S
Cd96         O97   2.460       .  S
Cd96        O100   2.497       .  S
Cd96         O98   2.433       .  S
C99         O103   1.264       .  A
C99         C525   1.439       .  S
O104        C107   1.264       .  A
O104       Cd109   2.490       .  S
C105        O114   1.261       .  A
C105        O110   1.268       .  A
C105        C532   1.427       .  S
O106        C112   1.267       .  A
O106       Cd109   2.491       .  S
C107        O115   1.267       .  A
C107        C522   1.449       .  S
C108        O113   1.266       .  A
C108        O111   1.264       .  A
C108        C526   1.438       .  S
Cd109       O116   2.430       .  S
Cd109       O115   2.509       .  S
Cd109       O114   2.428       .  S
Cd109       O110   2.460       .  S
Cd109       O113   2.486       .  S
Cd109       O111   2.449       .  S
C112        O116   1.262       .  A
C112        C536   1.436       .  S
O117        C120   1.264       .  A
O117       Cd122   2.488       .  S
C118        O127   1.261       .  A
C118        O123   1.268       .  A
C118        C517   1.427       .  S
O119        C125   1.267       .  A
O119       Cd122   2.490       .  S
C120        O128   1.267       .  A
C120        C554   1.449       .  S
C121        O126   1.266       .  A
C121        O124   1.264       .  A
C121        C520   1.438       .  S
Cd122       O129   2.430       .  S
Cd122       O128   2.508       .  S
Cd122       O127   2.428       .  S
Cd122       O123   2.460       .  S
Cd122       O126   2.485       .  S
Cd122       O124   2.449       .  S
C125        O129   1.262       .  A
C125        C548   1.435       .  S
O130        C133   1.267       .  A
O130       Cd135   2.463       .  S
C131        O140   1.267       .  A
C131        O136   1.264       .  A
C131        C577   1.450       .  S
O132        C138   1.266       .  A
O132       Cd135   2.496       .  S
C133        O141   1.261       .  A
C133        C515   1.429       .  S
C134        O139   1.266       .  A
C134        O137   1.264       .  A
C134        C519   1.438       .  S
Cd135       O142   2.434       .  S
Cd135       O141   2.435       .  S
Cd135       O140   2.515       .  S
Cd135       O136   2.485       .  S
Cd135       O139   2.484       .  S
Cd135       O137   2.451       .  S
C138        O142   1.261       .  A
C138        C513   1.437   1_545  S
O143        C146   1.264       .  A
O143       Cd148   2.490       .  S
C144        O153   1.261       .  A
C144        O149   1.268       .  A
C144        C518   1.427       .  S
O145        C151   1.267       .  A
O145       Cd148   2.491       .  S
C146        O154   1.267       .  A
C146        C507   1.449       .  S
C147        O152   1.266       .  A
C147        O150   1.263       .  A
C147        C511   1.438       .  S
Cd148       O155   2.430       .  S
Cd148       O154   2.509       .  S
Cd148       O153   2.429       .  S
Cd148       O149   2.459       .  S
Cd148       O152   2.486       .  S
Cd148       O150   2.448       .  S
C151        O155   1.262       .  A
C151        C509   1.436       .  S
O156        C159   1.264       .  A
O156       Cd161   2.486       .  S
C157        O166   1.261       .  A
C157        O162   1.267       .  A
C157        C516   1.429       .  S
O158        C164   1.266       .  A
O158       Cd161   2.484       .  S
C159        O167   1.267       .  A
C159        C604   1.450       .  S
C160        O165   1.267       .  A
C160        O163   1.261       .  A
C160        C538   1.437       .  S
Cd161       O168   2.451       .  S
Cd161       O167   2.513       .  S
Cd161       O166   2.437       .  S
Cd161       O162   2.461       .  S
Cd161       O165   2.496       .  S
Cd161       O163   2.433       .  S
C164        O168   1.264       .  A
C164        C512   1.438       .  S
O169        C172   1.264       .  A
O169       Cd174   2.490       .  S
C170        O179   1.261       .  A
C170        O175   1.268       .  A
C170        C503   1.427       .  S
O171        C177   1.267       .  A
O171       Cd174   2.492       .  S
C172        O180   1.267       .  A
C172        C566   1.449       .  S
C173        O178   1.266       .  A
C173        O176   1.264       .  A
C173        C505   1.438       .  S
Cd174       O181   2.430       .  S
Cd174       O180   2.509       .  S
Cd174       O179   2.429       .  S
Cd174       O175   2.459       .  S
Cd174       O178   2.486       .  S
Cd174       O176   2.449       .  S
C177        O181   1.261       .  A
C177        C510   1.436       .  S
O182        C185   1.264       .  A
O182       Cd187   2.486       .  S
C183        O192   1.261       .  A
C183        O188   1.266       .  A
C183        C502   1.429       .  S
O184        C190   1.267       .  A
O184       Cd187   2.484       .  S
C185        O193   1.267       .  A
C185        C584   1.450       .  S
C186        O191   1.266       .  A
C186        O189   1.261       .  A
C186        C524   1.437       .  S
Cd187       O194   2.451       .  S
Cd187       O193   2.514       .  S
Cd187       O192   2.436       .  S
Cd187       O188   2.461       .  S
Cd187       O191   2.497       .  S
Cd187       O189   2.434       .  S
C190        O194   1.264       .  A
C190        C506   1.439       .  S
O195        C198   1.267       .  A
O195       Cd200   2.463       .  S
C196        O205   1.267       .  A
C196        O201   1.264       .  A
C196        C623   1.450       .  S
O197        C203   1.266       .  A
O197       Cd200   2.496       .  S
C198        O206   1.261       .  A
C198        C501   1.429       .  S
C199        O204   1.266       .  A
C199        O202   1.264       .  A
C199        C499   1.439       .  S
Cd200       O207   2.434       .  S
Cd200       O206   2.435       .  S
Cd200       O205   2.514       .  S
Cd200       O201   2.486       .  S
Cd200       O204   2.484       .  S
Cd200       O202   2.452       .  S
C203        O207   1.261       .  A
C203        C514   1.437       .  S
O208        C211   1.264       .  A
O208       Cd213   2.489       .  S
C209        O218   1.261       .  A
C209        O214   1.268       .  A
C209        C504   1.427       .  S
O210        C216   1.267       .  A
O210       Cd213   2.492       .  S
C211        O219   1.267       .  A
C211        C497   1.449       .  S
C212        O217   1.266       .  A
C212        O215   1.264       .  A
C212        C500   1.438       .  S
Cd213       O220   2.430       .  S
Cd213       O219   2.508       .  S
Cd213       O218   2.429       .  S
Cd213       O214   2.459       .  S
Cd213       O217   2.486       .  S
Cd213       O215   2.448       .  S
C216        O220   1.261       .  A
C216        C530   1.435       .  S
C221        C491   1.484       .  S
C221        C493   1.484       .  S
C221        C495   1.481       .  S
C221        C521   1.481       .  S
C222        C487   1.484       .  S
C222        C490   1.481       .  S
C222        C492   1.484       .  S
C222        C498   1.481       .  S
C223        C484   1.484       .  S
C223        C485   1.481       .  S
C223        C494   1.484       .  S
C223        C545   1.481       .  S
C224        C482   1.481       .  S
C224        C483   1.484       .  S
C224        C488   1.484       .  S
C224        C508   1.481       .  S
O225        C228   1.264       .  A
O225       Cd230   2.490       .  S
C226        O235   1.261       .  A
C226        O231   1.268       .  A
C226        C478   1.427       .  S
O227        C233   1.267       .  A
O227       Cd230   2.492       .  S
C228        O236   1.267       .  A
C228        C592   1.449       .  S
C229        O234   1.266       .  A
C229        O232   1.264       .  A
C229        C479   1.438       .  S
Cd230       O237   2.430       .  S
Cd230       O236   2.509       .  S
Cd230       O235   2.428       .  S
Cd230       O231   2.460       .  S
Cd230       O234   2.486       .  S
Cd230       O232   2.449       .  S
C233        O237   1.262       .  A
C233        C475   1.436       .  S
O238        C241   1.264       .  A
O238       Cd243   2.486       .  S
C239        O248   1.261       .  A
C239        O244   1.266       .  A
C239        C473   1.429       .  S
O240        C246   1.267       .  A
O240       Cd243   2.484       .  S
C241        O249   1.267       .  A
C241        C576   1.450       .  S
C242        O247   1.266       .  A
C242        O245   1.261       .  A
C242        C472   1.437       .  S
Cd243       O250   2.451       .  S
Cd243       O249   2.513       .  S
Cd243       O248   2.437       .  S
Cd243       O244   2.460       .  S
Cd243       O247   2.497       .  S
Cd243       O245   2.433       .  S
C246        O250   1.264       .  A
C246        C480   1.439       .  S
O251        C254   1.264       .  A
O251       Cd256   2.486       .  S
C252        O261   1.261       .  A
C252        O257   1.267       .  A
C252        C474   1.429       .  S
O253        C259   1.266       .  A
O253       Cd256   2.484       .  S
C254        O262   1.267       .  A
C254        C496   1.450       .  S
C255        O260   1.266       .  A
C255        O258   1.261       .  A
C255        C468   1.437       .  S
Cd256       O263   2.452       .  S
Cd256       O262   2.515       .  S
Cd256       O261   2.434       .  S
Cd256       O257   2.463       .  S
Cd256       O260   2.496       .  S
Cd256       O258   2.434       .  S
C259        O263   1.264       .  A
C259        C469   1.438       .  S
O264        C267   1.268       .  A
O264       Cd269   2.458       .  S
C265        O274   1.267       .  A
C265        O270   1.264       .  A
C265        C614   1.449       .  S
O266        C272   1.266       .  A
O266       Cd269   2.485       .  S
C267        O275   1.261       .  A
C267        C477   1.427       .  S
C268        O273   1.267       .  A
C268        O271   1.261       .  A
C268        C465   1.435   1_655  S
Cd269       O276   2.448       .  S
Cd269       O275   2.429       .  S
Cd269       O274   2.508       .  S
Cd269       O270   2.488       .  S
Cd269       O273   2.492       .  S
Cd269       O271   2.430       .  S
C272        O276   1.264       .  A
C272        C470   1.438       .  S
O277        C280   1.267       .  A
O277       Cd282   2.463       .  S
C278        O287   1.267       .  A
C278        O283   1.264       .  A
C278        C567   1.450       .  S
O279        C285   1.266       .  A
O279       Cd282   2.496       .  S
C280        O288   1.261       .  A
C280        C461   1.429       .  S
C281        O286   1.266       .  A
C281        O284   1.264       .  A
C281        C464   1.439       .  S
Cd282       O289   2.433       .  S
Cd282       O288   2.435       .  S
Cd282       O287   2.514       .  S
Cd282       O283   2.486       .  S
Cd282       O286   2.484       .  S
Cd282       O284   2.452       .  S
C285        O289   1.261       .  A
C285        C459   1.437       .  S
O290        C293   1.264       .  A
O290       Cd295   2.489       .  S
C291        O300   1.261       .  A
C291        O296   1.268       .  A
C291        C458   1.427       .  S
O292        C298   1.267       .  A
O292       Cd295   2.492       .  S
C293        O301   1.267       .  A
C293        C586   1.449       .  S
C294        O299   1.266       .  A
C294        O297   1.264       .  A
C294        C463   1.438       .  S
Cd295       O302   2.430       .  S
Cd295       O301   2.508       .  S
Cd295       O300   2.429       .  S
Cd295       O296   2.459       .  S
Cd295       O299   2.486       .  S
Cd295       O297   2.448       .  S
C298        O302   1.261       .  A
C298        C466   1.435       .  S
O303        C306   1.264       .  A
O303       Cd308   2.490       .  S
C304        O313   1.261       .  A
C304        O309   1.268       .  A
C304        C457   1.427       .  S
O305        C311   1.267       .  A
O305       Cd308   2.492       .  S
C306        O314   1.267       .  A
C306        C621   1.449       .  S
C307        O312   1.266       .  A
C307        O310   1.264       .  A
C307        C456   1.438       .  S
Cd308       O315   2.430       .  S
Cd308       O314   2.509       .  S
Cd308       O313   2.429       .  S
Cd308       O309   2.459       .  S
Cd308       O312   2.486       .  S
Cd308       O310   2.449       .  S
C311        O315   1.261       .  A
C311        C453   1.436       .  S
O316        C319   1.264       .  A
O316       Cd321   2.486       .  S
C317        O326   1.261       .  A
C317        O322   1.266       .  A
C317        C462   1.429       .  S
O318        C324   1.267       .  A
O318       Cd321   2.484       .  S
C319        O327   1.267       .  A
C319        C489   1.450       .  S
C320        O325   1.266       .  A
C320        O323   1.261       .  A
C320        C471   1.437       .  S
Cd321       O328   2.451       .  S
Cd321       O327   2.513       .  S
Cd321       O326   2.437       .  S
Cd321       O322   2.461       .  S
Cd321       O325   2.496       .  S
Cd321       O323   2.434       .  S
C324        O328   1.264       .  A
C324        C455   1.439       .  S
O329        C332   1.264       .  A
O329       Cd334   2.485       .  S
C330        O339   1.261       .  A
C330        O335   1.267       .  A
C330        C449   1.429       .  S
O331        C337   1.266       .  A
O331       Cd334   2.483       .  S
C332        O340   1.267       .  A
C332        C481   1.450       .  S
C333        O338   1.266       .  A
C333        O336   1.261       .  A
C333        C460   1.437       .  S
Cd334       O341   2.451       .  S
Cd334       O340   2.515       .  S
Cd334       O339   2.435       .  S
Cd334       O335   2.463       .  S
Cd334       O338   2.496       .  S
Cd334       O336   2.434       .  S
C337        O341   1.264       .  A
C337        C451   1.438       .  S
O342        C345   1.268       .  A
O342       Cd347   2.460       .  S
C343        O352   1.267       .  A
C343        O348   1.264       .  A
C343        C601   1.449       .  S
O344        C350   1.266       .  A
O344       Cd347   2.485       .  S
C345        O353   1.261       .  A
C345        C447   1.427       .  S
C346        O351   1.267       .  A
C346        O349   1.262       .  A
C346        C446   1.435       .  S
Cd347       O354   2.449       .  S
Cd347       O353   2.428       .  S
Cd347       O352   2.508       .  S
Cd347       O348   2.488       .  S
Cd347       O351   2.490       .  S
Cd347       O349   2.430       .  S
C350        O354   1.264       .  A
C350        C452   1.438       .  S
O355        C358   1.264       .  A
O355       Cd360   2.486       .  S
C356        O365   1.261       .  A
C356        O361   1.267       .  A
C356        C450   1.429       .  S
O357        C363   1.266       .  A
O357       Cd360   2.484       .  S
C358        O366   1.267       .  A
C358        C555   1.450       .  S
C359        O364   1.267       .  A
C359        O362   1.261       .  A
C359        C441   1.437       .  S
Cd360       O367   2.451       .  S
Cd360       O366   2.513       .  S
Cd360       O365   2.437       .  S
Cd360       O361   2.461       .  S
Cd360       O364   2.496       .  S
Cd360       O362   2.433       .  S
C363        O367   1.264       .  A
C363        C443   1.438       .  S
O368        C371   1.264       .  A
O368       Cd373   2.490       .  S
C369        O378   1.261       .  A
C369        O374   1.268       .  A
C369        C448   1.427       .  S
O370        C376   1.267       .  A
O370       Cd373   2.492       .  S
C371        O379   1.267       .  A
C371        C580   1.449       .  S
C372        O377   1.266       .  A
C372        O375   1.264       .  A
C372        C444   1.438       .  S
Cd373       O380   2.430       .  S
Cd373       O379   2.509       .  S
Cd373       O378   2.429       .  S
Cd373       O374   2.459       .  S
Cd373       O377   2.486       .  S
Cd373       O375   2.448       .  S
C376        O380   1.262       .  A
C376        C454   1.436   1_545  S
O381        C384   1.267       .  A
O381       Cd386   2.462       .  S
C382        O391   1.267       .  A
C382        O387   1.264       .  A
C382        C486   1.450       .  S
O383        C389   1.267       .  A
O383       Cd386   2.496       .  S
C384        O392   1.261       .  A
C384        C437   1.429       .  S
C385        O390   1.266       .  A
C385        O388   1.264       .  A
C385        C440   1.438       .  S
Cd386       O393   2.433       .  S
Cd386       O392   2.436       .  S
Cd386       O391   2.513       .  S
Cd386       O387   2.486       .  S
Cd386       O390   2.484       .  S
Cd386       O388   2.451       .  S
C389        O393   1.261       .  A
C389        C442   1.437       .  S
O394        C397   1.264       .  A
O394       Cd399   2.490       .  S
C395        O404   1.261       .  A
C395        O400   1.268       .  A
C395        C436   1.427       .  S
O396        C402   1.267       .  A
O396       Cd399   2.492       .  S
C397        O405   1.267       .  A
C397        C608   1.449       .  S
C398        O403   1.266       .  A
C398        O401   1.264       .  A
C398        C439   1.438       .  S
Cd399       O406   2.430       .  S
Cd399       O405   2.509       .  S
Cd399       O404   2.429       .  S
Cd399       O400   2.459       .  S
Cd399       O403   2.486       .  S
Cd399       O401   2.448       .  S
C402        O406   1.262       .  A
C402        C476   1.436   1_545  S
O407        C410   1.264       .  A
O407       Cd412   2.489       .  S
C408        O417   1.261       .  A
C408        O413   1.268       .  A
C408        C435   1.427       .  S
O409        C415   1.267       .  A
O409       Cd412   2.490       .  S
C410        O418   1.267       .  A
C410        C599   1.449       .  S
C411        O416   1.266       .  A
C411        O414   1.264       .  A
C411        C433   1.438       .  S
Cd412       O419   2.430       .  S
Cd412       O418   2.508       .  S
Cd412       O417   2.428       .  S
Cd412       O413   2.460       .  S
Cd412       O416   2.485       .  S
Cd412       O414   2.448       .  S
C415        O419   1.262       .  A
C415        C445   1.435   1_655  S
O420        C423   1.267       .  A
O420       Cd425   2.462       .  S
C421        O430   1.267       .  A
C421        O426   1.264       .  A
C421        C561   1.450       .  S
O422        C428   1.266       .  A
O422       Cd425   2.497       .  S
C423        O431   1.261       .  A
C423        C438   1.429       .  S
C424        O429   1.266       .  A
C424        O427   1.264       .  A
C424        C434   1.438       .  S
Cd425       O432   2.433       .  S
Cd425       O431   2.435       .  S
Cd425       O430   2.515       .  S
Cd425       O426   2.485       .  S
Cd425       O429   2.483       .  S
Cd425       O427   2.451       .  S
C428        O432   1.261       .  A
C428        C467   1.437       .  S
C433        C434   1.208       .  T
C435        C436   1.202       .  T
C437        C438   1.203       .  T
C439        C440   1.208       .  T
C441        C442   1.207       .  T
C443        C444   1.208       .  T
C445        C446   1.206       .  T
C447        C448   1.202       .  T
C449        C450   1.203       .  T
C451        C452   1.208       .  T
C453        C454   1.206       .  T
C455        C456   1.208       .  T
C457        C458   1.202       .  T
C459        C460   1.207       .  T
C461        C462   1.203       .  T
C463        C464   1.208       .  T
C465        C466   1.206       .  T
C467        C468   1.207       .  T
C469        C470   1.208       .  T
C471        C472   1.207       .  T
C473        C474   1.203       .  T
C475        C476   1.206       .  T
C477        C478   1.202       .  T
C479        C480   1.208       .  T
C481        C482   1.215       .  T
C483        C484   1.217       .  T
C485        C486   1.215       .  T
C487        C488   1.217       .  T
C489        C490   1.215       .  T
C491        C492   1.217       .  T
C493        C494   1.217       .  T
C495        C496   1.215       .  T
C497        C498   1.215       .  T
C499        C500   1.208       .  T
C501        C502   1.203       .  T
C503        C504   1.202       .  T
C505        C506   1.208       .  T
C507        C508   1.215       .  T
C509        C510   1.206       .  T
C511        C512   1.208       .  T
C513        C514   1.207       .  T
C515        C516   1.203       .  T
C517        C518   1.202       .  T
C519        C520   1.208       .  T
C521        C522   1.215       .  T
C523        C524   1.207       .  T
C525        C526   1.208       .  T
C527        C528   1.203       .  T
C529        C530   1.206       .  T
C531        C532   1.202       .  T
C533        C534   1.208       .  T
C535        C536   1.206       .  T
C537        C538   1.207       .  T
C539        C540   1.208       .  T
C541        C542   1.207       .  T
C543        C544   1.203       .  T
C545        C546   1.215       .  T
C547        C548   1.206       .  T
C549        C550   1.202       .  T
C551        C552   1.208       .  T
C553        C554   1.215       .  T
C555        C556   1.215       .  T
C557        C558   1.217       .  T
C559        C560   1.215       .  T
C561        C562   1.215       .  T
C563        C564   1.217       .  T
C565        C566   1.215       .  T
C567        C568   1.215       .  T
C569        C570   1.217       .  T
C571        C572   1.217       .  T
C573        C574   1.215       .  T
C575        C576   1.215       .  T
C577        C578   1.215       .  T
C579        C580   1.215       .  T
C581        C582   1.217       .  T
C583        C584   1.215       .  T
C585        C586   1.215       .  T
C587        C588   1.217   1_655  T
C589        C590   1.215       .  T
C591        C592   1.215       .  T
C593        C594   1.217   1_545  T
C595        C596   1.217       .  T
C597        C598   1.215       .  T
C599        C600   1.215       .  T
C601        C602   1.215       .  T
C603        C604   1.215       .  T
C605        C606   1.217   1_455  T
C607        C608   1.215       .  T
C609        C610   1.215       .  T
C611        C612   1.217       .  T
C613        C614   1.215       .  T
C615        C616   1.215       .  T
C617        C618   1.217       .  T
C619        C620   1.217   1_565  T
C621        C622   1.215       .  T
C623        C624   1.215       .  T
