geometry optimzed in LAMMPS
_audit_creation_date              2020-11-30 
_audit_creation_method            'lammps2cif' 
_symmetry_space_group_name_H-M    'P1' 
_symmetry_Int_Tables_number       1 
_symmetry_cell_setting            triclinic 
loop_ 
_symmetry_equiv_pos_as_xyz 
  x,y,z 
_cell_length_a                    34.59449272 
_cell_length_b                    34.60272560481414 
_cell_length_c                    29.724341160594783 
_cell_angle_alpha                 90.41354497801542 
_cell_angle_beta                  90.07104797403997 
_cell_angle_gamma                 89.78838212236359 
loop_ 
_atom_site_label 
_atom_site_type_symbol 
_atom_site_fract_x 
_atom_site_fract_y 
_atom_site_fract_z 
_atom_site_charge 
C1          C  0.49545954  0.28744186  0.12742411     0.79700
N2          N  0.47277959  0.26897719  0.15802292    -0.78600
C3          C  0.47134356  0.22959773  0.15851065     0.82100
N4          N  0.49223361  0.20884949  0.12810121    -0.78600
C5          C  0.51467113  0.22700795  0.09754801     0.82200
N6          N  0.51642178  0.26610447  0.09756098    -0.80300
O7          O  0.56225418  0.58955425  0.12003793    -0.72300
O8          O  0.45253067  0.59117403  0.12361128    -0.72500
O9          O  0.50776534  0.64503802  0.12107808    -0.72400
O10         O  0.50661734  0.53519087  0.12271229    -0.72400
O11         O  0.50178544  0.53696154  0.19552886    -0.72400
O12         O  0.51610029  0.64585769  0.19352189    -0.72400
O13         O  0.45448917  0.59886328  0.19613827    -0.72300
O14         O  0.56361301  0.58408595  0.19277417    -0.72500
V15         V  0.50736723  0.59020467  0.12318641     1.35200
V16         V  0.50902328  0.59138047  0.19321191     1.35200
C17         C  0.58167381  0.58571079  0.15580749     0.76900
C18         C  0.43478817  0.59672970  0.16029251     0.77000
C19         C  0.51288928  0.66415890  0.15699631     0.76800
C20         C  0.50249589  0.51736141  0.15942683     0.76800
C21         C  0.81059113  0.59830498  0.12103265     0.79700
N22         N  0.83110385  0.62012476  0.09157620    -0.78600
C23         C  0.87039775  0.61981599  0.09244333     0.82100
N24         N  0.88927390  0.59815665  0.12335810    -0.78600
C25         C  0.86917321  0.57659544  0.15313669     0.82200
N26         N  0.82993739  0.57646327  0.15168862    -0.80300
C27         C  0.49478532  0.89233570  0.12457674     0.79700
N28         N  0.51582395  0.91173795  0.15599546    -0.78600
C29         C  0.51460049  0.95084510  0.15839973     0.82100
N30         N  0.49279046  0.97094211  0.12859958    -0.78600
C31         C  0.47185864  0.95194081  0.09681215     0.82200
N32         N  0.47263619  0.91266897  0.09509088    -0.80300
C33         C  0.20579041  0.59813344  0.12457872     0.79700
N34         N  0.18629726  0.61976937  0.15556442    -0.78600
C35         C  0.14701337  0.61991452  0.15615944     0.82100
N36         N  0.12711934  0.59878954  0.12526980    -0.78600
C37         C  0.14631299  0.57729544  0.09408947     0.82200
N38         N  0.18553100  0.57681983  0.09405451    -0.80300
C39         C  0.49747768  0.89075807  0.38469952     0.79700
N40         N  0.51818671  0.90939002  0.35255339    -0.78600
C41         C  0.51617041  0.94854830  0.34931591     0.82100
N42         N  0.49377184  0.96899042  0.37845743    -0.78600
C43         C  0.47304839  0.95061799  0.41041342     0.82200
N44         N  0.47489153  0.91158630  0.41343614    -0.80300
O45         O  0.56777223  0.59053934  0.41168102    -0.72300
O46         O  0.45845867  0.59146939  0.42552502    -0.72500
O47         O  0.51357222  0.53658662  0.42617862    -0.72400
O48         O  0.51266679  0.64552467  0.41135967    -0.72400
O49         O  0.50792300  0.63801203  0.33898803    -0.72400
O50         O  0.50515055  0.52919027  0.35424792    -0.72400
O51         O  0.45200111  0.58580834  0.35312523    -0.72300
O52         O  0.56082110  0.58108652  0.33983809    -0.72500
V53         V  0.51301697  0.59092145  0.41730840     1.35200
V54         V  0.50657684  0.58367864  0.34797466     1.35200
C55         C  0.58291843  0.58526082  0.37336683     0.76900
C56         C  0.43654825  0.58890464  0.39151691     0.77000
C57         C  0.50929205  0.51426544  0.39270051     0.76800
C58         C  0.51037049  0.66040537  0.37269678     0.76800
C59         C  0.20649056  0.59575299  0.37225020     0.79700
N60         N  0.18680345  0.57511912  0.40352949    -0.78600
C61         C  0.14755758  0.57716193  0.40527888     0.82100
N62         N  0.12810259  0.59962102  0.37560446    -0.78600
C63         C  0.14755942  0.62026133  0.34443469     0.82200
N64         N  0.18668133  0.61829136  0.34280956    -0.80300
C65         C  0.49877278  0.28455899  0.37630478     0.79700
N66         N  0.51875662  0.26439322  0.40784359    -0.78600
C67         C  0.51580696  0.22524609  0.40954276     0.82100
N68         N  0.49309581  0.20629569  0.37933275    -0.78600
C69         C  0.47304406  0.22640186  0.34786588     0.82200
N70         N  0.47592662  0.26538245  0.34652745    -0.80300
C71         C  0.81306034  0.59754809  0.37975350     0.79700
N72         N  0.83422034  0.61950327  0.40847803    -0.78600
C73         C  0.87318391  0.62018376  0.40573293     0.82100
N74         N  0.89146486  0.59905893  0.37352920    -0.78600
C75         C  0.87061138  0.57733386  0.34402348     0.82200
N76         N  0.83137917  0.57632668  0.34737658    -0.80300
C77         C  0.00828780  0.79727436  0.37763946     0.79700
N78         N  0.98780731  0.77656843  0.40799237    -0.78600
C79         C  0.98939784  0.73747204  0.40792171     0.82100
N80         N  0.01105612  0.71865444  0.37675433    -0.78600
C81         C  0.03144859  0.73882940  0.34590945     0.82200
N82         N  0.03026745  0.77819920  0.34647435    -0.80300
O83         O  0.99450359  0.04444681  0.38086142    -0.72300
O84         O  0.99147102  0.15426198  0.38294774    -0.72500
O85         O  0.93812354  0.09805909  0.38036089    -0.72400
O86         O  0.04782276  0.10054485  0.38357967    -0.72400
O87         O  0.04869695  0.10737700  0.31101341    -0.72400
O88         O  0.93979278  0.09259579  0.30757207    -0.72400
O89         O  0.98658003  0.15439643  0.31009113    -0.72300
O90         O  0.00197380  0.04556278  0.30835736    -0.72500
V91         V  0.99296281  0.09935861  0.38060519     1.35200
V92         V  0.99423495  0.09997097  0.31055979     1.35200
C93         C  0.00006076  0.02630969  0.34430800     0.76900
C94         C  0.98752938  0.17302916  0.34684658     0.77000
C95         C  0.92023955  0.09384873  0.34351409     0.76800
C96         C  0.06697457  0.10529932  0.34785032     0.76800
C97         C  0.29602638  0.09367899  0.38115167     0.79700
N98         N  0.31649842  0.07154867  0.41044782    -0.78600
C99         C  0.35572116  0.07064024  0.40892712     0.82100
N100        N  0.37465389  0.09152621  0.37741639    -0.78600
C101        C  0.35452690  0.11342139  0.34765133     0.82200
N102        N  0.31531627  0.11469503  0.34985594    -0.80300
C103        C  0.00258239  0.40184272  0.37811587     0.79700
N104        N  0.98199388  0.42133416  0.34647637    -0.78600
C105        C  0.98453520  0.46036914  0.34350489     0.82100
N106        N  0.00726697  0.48019608  0.37285668    -0.78600
C107        C  0.02781701  0.46110654  0.40471339     0.82200
N108        N  0.02562129  0.42197310  0.40705614    -0.80300
C109        C  0.69172946  0.08596877  0.38120577     0.79700
N110        N  0.67120399  0.10709328  0.41167331    -0.78600
C111        C  0.63205288  0.10613234  0.41178298     0.82100
N112        N  0.61313346  0.08434091  0.38087422    -0.78600
C113        C  0.63317596  0.06330715  0.35002601     0.82200
N114        N  0.67251798  0.06398641  0.35026451    -0.80300
C115        C  0.00351109  0.40175363  0.11563246     0.79700
N116        N  0.02605705  0.42255635  0.08743480    -0.78600
C117        C  0.02718736  0.46156513  0.09036257     0.82100
N118        N  0.00607301  0.48014691  0.12226996    -0.78600
C119        C  0.98377406  0.45975613  0.15116495     0.82200
N120        N  0.98221827  0.42055128  0.14758698    -0.80300
O121        O  0.99486192  0.04749570  0.07384734    -0.72300
O122        O  0.99610420  0.15652467  0.08840311    -0.72500
O123        O  0.04997919  0.10072279  0.08845126    -0.72400
O124        O  0.94088642  0.10364309  0.07387272    -0.72400
O125        O  0.93439286  0.09217616  0.14520102    -0.72400
O126        O  0.04273654  0.09950838  0.16099199    -0.72400
O127        O  0.98391913  0.15018567  0.15963650    -0.72300
O128        O  0.99294214  0.04139355  0.14646546    -0.72500
V129        V  0.99534584  0.10196635  0.08245672     1.35200
V130        V  0.98862267  0.09588020  0.15172110     1.35200
C131        C  0.99454724  0.02579355  0.10788091     0.76900
C132        C  0.98935967  0.17196107  0.12629698     0.77000
C133        C  0.06494739  0.10079625  0.12731461     0.76800
C134        C  0.91903885  0.09767866  0.10715287     0.76800
C135        C  0.68988165  0.08572028  0.12951465     0.79700
N136        N  0.67026283  0.10761663  0.09919792    -0.78600
C137        C  0.63094294  0.10793241  0.09907069     0.82100
N138        N  0.61125591  0.08683594  0.12974902    -0.78600
C139        C  0.63072715  0.06519043  0.16019892     0.82200
N140        N  0.66981567  0.06446731  0.15969915    -0.80300
C141        C  0.00897250  0.79649836  0.12726423     0.79700
N142        N  0.98750264  0.77684642  0.09635856    -0.78600
C143        C  0.98812176  0.73755836  0.09552460     0.82100
N144        N  0.00988061  0.71799842  0.12580433    -0.78600
C145        C  0.03124237  0.73745826  0.15667539     0.82200
N146        N  0.03084614  0.77658822  0.15725207    -0.80300
C147        C  0.29530537  0.09744720  0.11904997     0.79700
N148        N  0.31618147  0.07438774  0.09097858    -0.78600
C149        C  0.35508830  0.07226855  0.09463034     0.82100
N150        N  0.37344746  0.09311913  0.12685138    -0.78600
C151        C  0.35300040  0.11597176  0.15560573     0.82200
N152        N  0.31381783  0.11831669  0.15161861    -0.80300
O153        O  0.09426872  0.56891650  0.45401085    -0.72300
O154        O  0.03779170  0.51521052  0.04305076    -0.72500
O155        O  0.09317226  0.56875033  0.04465817    -0.72400
O156        O  0.03875050  0.51522527  0.45241124    -0.72400
O157        O  0.08182777  0.46933646  0.45354463    -0.72400
O158        O  0.13770498  0.52424594  0.04385051    -0.72400
O159        O  0.08157787  0.46994735  0.04317261    -0.72300
O160        O  0.13818942  0.52380249  0.45402497    -0.72500
V161        V  0.06688593  0.54115494  0.99850517     1.35200
V162        V  0.10900094  0.49771825  0.99863870     1.35200
C163        C  0.12590754  0.55569904  0.43916202     0.76900
C164        C  0.04994853  0.48330302  0.05790253     0.77000
C165        C  0.12481339  0.55577398  0.05963624     0.76800
C166        C  0.05058385  0.48284452  0.43796395     0.76800
O167        O  0.57782394  0.11754653  0.05004505    -0.72300
O168        O  0.52406331  0.17205674  0.45871519    -0.72500
O169        O  0.57821370  0.11661683  0.45949972    -0.72400
O170        O  0.52364049  0.17282323  0.04942175    -0.72400
O171        O  0.56813665  0.21704588  0.04895990    -0.72400
O172        O  0.62349518  0.16004853  0.46033177    -0.72400
O173        O  0.56873314  0.21609565  0.45929299    -0.72300
O174        O  0.62299236  0.16108593  0.04984561    -0.72500
V175        V  0.55180023  0.14562498  0.00441160     1.35200
V176        V  0.59494231  0.18773775  0.00458744     1.35200
C177        C  0.60970790  0.12985243  0.06508457     0.76900
C178        C  0.53710904  0.20353774  0.44379885     0.77000
C179        C  0.61033316  0.12855608  0.44510700     0.76800
C180        C  0.53645381  0.20463312  0.06413951     0.76800
O181        O  0.97930548  0.68425285  0.04659822    -0.72300
O182        O  0.92635519  0.62933558  0.45474351    -0.72500
O183        O  0.98041109  0.68402588  0.45608359    -0.72400
O184        O  0.92483710  0.62951297  0.04546800    -0.72400
O185        O  0.87965230  0.67333851  0.04408771    -0.72400
O186        O  0.93621651  0.72890236  0.45660062    -0.72400
O187        O  0.88157811  0.67363849  0.45450587    -0.72300
O188        O  0.93481793  0.72882517  0.04611555    -0.72500
V189        V  0.95185715  0.65763936  0.00079091     1.35200
V190        V  0.90892437  0.70029565  0.00036512     1.35200
C191        C  0.96641119  0.71605721  0.06146178     0.76900
C192        C  0.89489568  0.64214510  0.43921099     0.77000
C193        C  0.96777488  0.71584267  0.44143353     0.76800
C194        C  0.89253285  0.64187168  0.05944488     0.76800
O195        O  0.41847778  0.96127297  0.04761094    -0.72300
O196        O  0.36411606  0.01706443  0.45756907    -0.72500
O197        O  0.41886067  0.96074484  0.45798901    -0.72400
O198        O  0.36389698  0.01765404  0.04718165    -0.72400
O199        O  0.40916415  0.06111128  0.04774183    -0.72400
O200        O  0.46354657  0.00479209  0.45799572    -0.72400
O201        O  0.40953865  0.06031787  0.45709909    -0.72300
O202        O  0.46296345  0.00550049  0.04858374    -0.72500
V203        V  0.39218664  0.99003241  0.00259504     1.35200
V204        V  0.43541397  0.03205847  0.00284521     1.35200
C205        C  0.45006372  0.97384959  0.06318291     0.76900
C206        C  0.37746317  0.04828700  0.44228424     0.77000
C207        C  0.45073605  0.97302141  0.44321322     0.76800
C208        C  0.37710597  0.04920217  0.06224872     0.76800
O209        O  0.09406789  0.63067911  0.29655996    -0.72300
O210        O  0.04032566  0.68468457  0.20539074    -0.72500
O211        O  0.09439667  0.62966043  0.20594800    -0.72400
O212        O  0.04008204  0.68600071  0.29595189    -0.72400
O213        O  0.08477743  0.73001571  0.29613967    -0.72400
O214        O  0.13921664  0.67355239  0.20575595    -0.72400
O215        O  0.08432508  0.72942413  0.20631353    -0.72300
O216        O  0.13966892  0.67375647  0.29555439    -0.72500
V217        V  0.06810483  0.65864568  0.25099637     1.35200
V218        V  0.11114938  0.70085761  0.25096040     1.35200
C219        C  0.12621343  0.64265189  0.31103806     0.76900
C220        C  0.05298970  0.71630510  0.19065680     0.77000
C221        C  0.12604473  0.64200643  0.19061062     0.76800
C222        C  0.05304403  0.71760177  0.31119590     0.76800
O223        O  0.40532928  0.12321825  0.20591208    -0.72300
O224        O  0.46201684  0.17450815  0.29740815    -0.72500
O225        O  0.40636274  0.12161483  0.29657933    -0.72400
O226        O  0.46098201  0.17645977  0.20675721    -0.72400
O227        O  0.41807054  0.22246880  0.20901494    -0.72400
O228        O  0.36236346  0.16662208  0.29802115    -0.72400
O229        O  0.41895092  0.22043273  0.29903452    -0.72300
O230        O  0.36136611  0.16824934  0.20776405    -0.72500
V231        V  0.43276149  0.14986980  0.25163611     1.35200
V232        V  0.39097411  0.19358442  0.25343002     1.35200
C233        C  0.37380459  0.13675823  0.19131873     0.76900
C234        C  0.45022395  0.20618347  0.31367261     0.76600
C235        C  0.37517634  0.13480934  0.31267864     0.76800
C236        C  0.44912305  0.20886439  0.19285993     0.76800
O237        O  0.97632871  0.51237631  0.29297714    -0.72300
O238        O  0.92188262  0.56702992  0.20259044    -0.72500
O239        O  0.92240223  0.56754150  0.29326462    -0.72400
O240        O  0.97577190  0.51185560  0.20218634    -0.72400
O241        O  0.93135524  0.46757392  0.20256417    -0.72400
O242        O  0.87708896  0.52416881  0.29318840    -0.72400
O243        O  0.87656541  0.52366122  0.20313041    -0.72300
O244        O  0.93184552  0.46815232  0.29282013    -0.72500
V245        V  0.94819963  0.53879942  0.24774337     1.35200
V246        V  0.90507217  0.49669302  0.24792145     1.35200
C247        C  0.96333481  0.48108031  0.30835995     0.76900
C248        C  0.88997501  0.55478115  0.18763080     0.77000
C249        C  0.89070825  0.55542270  0.30867636     0.76800
C250        C  0.96270101  0.48038377  0.18679849     0.76800
O251        O  0.62475060  0.01083492  0.29862586    -0.72300
O252        O  0.56752207  0.95721156  0.20861516    -0.72500
O253        O  0.62297587  0.01176384  0.20872964    -0.72400
O254        O  0.56888002  0.95605764  0.29859474    -0.72400
O255        O  0.52487762  0.00107910  0.30007244    -0.72400
O256        O  0.57874652  0.05658212  0.21060612    -0.72400
O257        O  0.52406427  0.00278430  0.20943426    -0.72300
O258        O  0.57985903  0.05493881  0.30123275    -0.72500
V259        V  0.59519073  0.98480305  0.25368226     1.35200
V260        V  0.55277319  0.02794252  0.25537084     1.35200
C261        C  0.61188196  0.04204686  0.31522016     0.76900
C262        C  0.53632911  0.97113929  0.19346560     0.77000
C263        C  0.60989021  0.04353572  0.19437648     0.76800
C264        C  0.53755762  0.96920049  0.31448871     0.76800
C265        C  0.10727236  0.10264734  0.13319184    -0.05800
C266        C  0.12338505  0.11125948  0.17550052    -0.05700
C267        C  0.16344341  0.11349156  0.18093240    -0.23900
C268        C  0.18810093  0.10669818  0.14436113     0.18300
C269        C  0.17208675  0.09770356  0.10176745     0.15600
C270        C  0.13187194  0.09607449  0.09637646    -0.18900
C271        C  0.19655040  0.09000054  0.06533043    -0.20700
C272        C  0.23652680  0.09053129  0.07114614    -0.13300
C273        C  0.25288972  0.09934687  0.11334136     0.03400
C274        C  0.22844996  0.10800529  0.14978167    -0.25400
H275        H  0.10497522  0.11654457  0.20433930     0.08500
H276        H  0.17519067  0.12017088  0.21374784     0.12100
H277        H  0.11976645  0.08917926  0.06363379     0.12000
H278        H  0.18478251  0.08305561  0.03247150     0.11800
H279        H  0.25472276  0.08396847  0.04243807     0.12300
H280        H  0.24074975  0.11448301  0.18253566     0.14200
C281        C  0.00754601  0.83907289  0.12990441    -0.05800
C282        C  0.01380463  0.85754999  0.17149529    -0.05700
C283        C  0.01192432  0.89764252  0.17512787    -0.23900
C284        C  0.00454772  0.92010860  0.13718563     0.18300
C285        C  0.99882203  0.90204667  0.09492594     0.15600
C286        C  0.99991259  0.86149691  0.09158016    -0.18900
C287        C  0.99218311  0.92493581  0.05691506    -0.20700
C288        C  0.99103419  0.96527102  0.06088827    -0.13300
C289        C  0.99614773  0.98329738  0.10303001     0.03400
C290        C  0.00289419  0.96040824  0.14102429    -0.25400
H291        H  0.01947000  0.84092000  0.20154779     0.08500
H292        H  0.01612699  0.91118699  0.20758915     0.12100
H293        H  0.99537652  0.84749141  0.05926945     0.12000
H294        H  0.98795173  0.91164411  0.02422581     0.11800
H295        H  0.98581478  0.98233011  0.03106701     0.12300
H296        H  0.00719742  0.97395073  0.17365500     0.14200
C297        C  0.87662043  0.09726779  0.10240870    -0.05800
C298        C  0.85821114  0.11284635  0.06440168    -0.05700
C299        C  0.81778894  0.11394368  0.06176856    -0.23900
C300        C  0.79529430  0.09905194  0.09684241     0.18300
C301        C  0.81384706  0.08249561  0.13448790     0.15600
C302        C  0.85415297  0.08191464  0.13712098    -0.18900
C303        C  0.79188370  0.06683552  0.16919358    -0.20700
C304        C  0.75174380  0.06812658  0.16734956    -0.13300
C305        C  0.73264001  0.08493962  0.13050132     0.03400
C306        C  0.75468999  0.10033758  0.09512505    -0.25400
H307        H  0.87503130  0.12484611  0.03719361     0.08500
H308        H  0.80413763  0.12665796  0.03256602     0.12100
H309        H  0.86805276  0.06949876  0.16642218     0.12000
H310        H  0.80584837  0.05338532  0.19768895     0.11800
H311        H  0.73568625  0.05598323  0.19507560     0.12300
H312        H  0.74038886  0.11303972  0.06629004     0.14200
C313        C  0.98804826  0.21435957  0.13122713    -0.05800
C314        C  0.96959532  0.23187352  0.16824213    -0.05700
C315        C  0.96798842  0.27215152  0.17221708    -0.23900
C316        C  0.98536046  0.29548362  0.13961503     0.18300
C317        C  0.00426358  0.27793951  0.10254776     0.15600
C318        C  0.00524684  0.23763088  0.09845225    -0.18900
C319        C  0.02205258  0.30094585  0.07016130    -0.20700
C320        C  0.02141275  0.34104550  0.07450056    -0.13300
C321        C  0.00281298  0.35906601  0.11122620     0.03400
C322        C  0.98450352  0.33597501  0.14358406    -0.25400
H323        H  0.95598772  0.21441982  0.19379858     0.08500
H324        H  0.95326315  0.28503741  0.20075981     0.12100
H325        H  0.01980674  0.22435962  0.06994880     0.12000
H326        H  0.03664724  0.28793413  0.04154798     0.11800
H327        H  0.03561805  0.35793083  0.04887498     0.12300
H328        H  0.97014665  0.34936839  0.17212266     0.14200
C329        C  0.73452308  0.08815576  0.38131640    -0.05800
C330        C  0.75405146  0.10219447  0.41962313    -0.05700
C331        C  0.79420807  0.10588796  0.41975985    -0.23900
C332        C  0.81568104  0.09592324  0.38148990     0.18300
C333        C  0.79650487  0.08186622  0.34272598     0.15600
C334        C  0.75608921  0.07772151  0.34298343    -0.18900
C335        C  0.81809050  0.07249681  0.30427430    -0.20700
C336        C  0.85827453  0.07694790  0.30415495    -0.13300
C337        C  0.87763035  0.09032392  0.34282528     0.03400
C338        C  0.85602004  0.09983499  0.38139016    -0.25400
H339        H  0.73826358  0.11033498  0.44969320     0.08500
H340        H  0.80846710  0.11677391  0.44970549     0.12100
H341        H  0.74143056  0.06720030  0.31307514     0.12000
H342        H  0.80380912  0.06163043  0.27442404     0.11800
H343        H  0.87425788  0.06936977  0.27402910     0.12300
H344        H  0.87055798  0.11046211  0.41133078     0.14200
C345        C  0.00038571  0.35905154  0.38052938    -0.05800
C346        C  0.01719799  0.33916461  0.41679678    -0.05700
C347        C  0.01653867  0.29881560  0.41831239    -0.23900
C348        C  0.99943612  0.27749768  0.38335176     0.18300
C349        C  0.98205057  0.29709047  0.34695631     0.15600
C350        C  0.98224771  0.33765881  0.34602586    -0.18900
C351        C  0.96556274  0.27574152  0.31157781    -0.20700
C352        C  0.96724884  0.23536990  0.31161437    -0.13300
C353        C  0.98463776  0.21564220  0.34754473     0.03400
C354        C  0.00014008  0.23692974  0.38370898    -0.25400
H355        H  0.03108615  0.35477584  0.44402947     0.08500
H356        H  0.02994747  0.28427224  0.44651754     0.12100
H357        H  0.96916304  0.35244909  0.31778165     0.12000
H358        H  0.95192409  0.29029448  0.28356288     0.11800
H359        H  0.95485765  0.21952908  0.28357776     0.12300
H360        H  0.01381288  0.22195201  0.41145651     0.14200
C361        C  0.25311178  0.09448114  0.38299086    -0.05800
C362        C  0.23324651  0.07760624  0.41916698    -0.05700
C363        C  0.19281923  0.07738126  0.42029494    -0.23900
C364        C  0.17141988  0.09381836  0.38515690     0.18300
C365        C  0.19104738  0.11123879  0.34894736     0.15600
C366        C  0.23161218  0.11164254  0.34819951    -0.18900
C367        C  0.16978821  0.12761546  0.31373661    -0.20700
C368        C  0.12947781  0.12557959  0.31343372    -0.13300
C369        C  0.10961048  0.10805206  0.34900236     0.03400
C370        C  0.13079351  0.09273994  0.38523786    -0.25400
H371        H  0.24893711  0.06444035  0.44666033     0.08500
H372        H  0.17830079  0.06396270  0.44840098     0.12100
H373        H  0.24636567  0.12472262  0.32001511     0.12000
H374        H  0.18444087  0.14191966  0.28639010     0.11800
H375        H  0.11376932  0.13809194  0.28555130     0.12300
H376        H  0.11574058  0.07914186  0.41287740     0.14200
C377        C  0.00566414  0.84012135  0.37857191    -0.05800
C378        C  0.98865013  0.85910987  0.41571558    -0.05700
C379        C  0.98447840  0.89924647  0.41651524    -0.23900
C380        C  0.99718463  0.92134319  0.38021649     0.18300
C381        C  0.01457759  0.90276644  0.34283616     0.15600
C382        C  0.01889229  0.86233139  0.34229680    -0.18900
C383        C  0.02712238  0.92496321  0.30648136    -0.20700
C384        C  0.02167583  0.96502585  0.30657407    -0.13300
C385        C  0.00462860  0.98378300  0.34371156     0.03400
C386        C  0.99267402  0.96169192  0.38063799    -0.25400
H387        H  0.97834062  0.84292545  0.44431713     0.08500
H388        H  0.97092704  0.91299119  0.44532047     0.12100
H389        H  0.03185218  0.84819637  0.31332212     0.12000
H390        H  0.04142913  0.91129289  0.27818958     0.11800
H391        H  0.03151029  0.98144160  0.27791869     0.12300
H392        H  0.97948022  0.97582593  0.40948546     0.14200
C393        C  0.62532232  0.58428267  0.36766482    -0.05800
C394        C  0.64164570  0.57357919  0.32608335    -0.05700
C395        C  0.68169666  0.57337761  0.32024803    -0.23900
C396        C  0.70614380  0.58416046  0.35569679     0.18300
C397        C  0.68996638  0.59502297  0.39762377     0.15600
C398        C  0.64976553  0.59470402  0.40344977    -0.18900
C399        C  0.71423024  0.60639920  0.43295270    -0.20700
C400        C  0.75413788  0.60721200  0.42678399    -0.13300
C401        C  0.77065723  0.59623569  0.38533663     0.03400
C402        C  0.74642526  0.58453716  0.34987655    -0.25400
H403        H  0.62341009  0.56534315  0.29801900     0.08500
H404        H  0.69358417  0.56502678  0.28799797     0.12100
H405        H  0.63752871  0.60315325  0.43562934     0.12000
H406        H  0.70236028  0.61484250  0.46530381     0.11800
H407        H  0.77213118  0.61614818  0.45480521     0.12300
H408        H  0.75879861  0.57633349  0.31768092     0.14200
C409        C  0.50916908  0.47180275  0.39804672    -0.05800
C410        C  0.51108327  0.45488325  0.44090218    -0.05700
C411        C  0.51058421  0.41464127  0.44549192    -0.23900
C412        C  0.50809473  0.39068899  0.40731718     0.18300
C413        C  0.50629522  0.40758101  0.36417724     0.15600
C414        C  0.50698002  0.44782123  0.35984666    -0.18900
C415        C  0.50335484  0.38400853  0.32590696    -0.20700
C416        C  0.50109813  0.34404206  0.33021974    -0.13300
C417        C  0.50264382  0.32682380  0.37281588     0.03400
C418        C  0.50680011  0.35023993  0.41137030    -0.25400
H419        H  0.51276480  0.47275259  0.47089873     0.08500
H420        H  0.51182344  0.40227459  0.47883273     0.12100
H421        H  0.50553117  0.46044412  0.32659476     0.12000
H422        H  0.50240618  0.39652735  0.29265956     0.11800
H423        H  0.49833397  0.32647663  0.30007462     0.12300
H424        H  0.50783334  0.33710652  0.44436572     0.14200
C425        C  0.24899173  0.59309914  0.36906189    -0.05800
C426        C  0.26676456  0.59421998  0.32664671    -0.05700
C427        C  0.30690060  0.59236753  0.32284632    -0.23900
C428        C  0.33007802  0.59064163  0.36139461     0.18300
C429        C  0.31261152  0.58955146  0.40432696     0.15600
C430        C  0.27206016  0.59016117  0.40789590    -0.18900
C431        C  0.33606960  0.58829597  0.44282269    -0.20700
C432        C  0.37639158  0.58829845  0.43879320    -0.13300
C433        C  0.39394608  0.58927480  0.39616671     0.03400
C434        C  0.37045783  0.59028994  0.35758227    -0.25400
H435        H  0.24951318  0.59604063  0.29628359     0.08500
H436        H  0.31989901  0.59239619  0.28980585     0.12100
H437        H  0.25852364  0.58945680  0.44075901     0.12000
H438        H  0.32322766  0.58757667  0.47599505     0.11800
H439        H  0.39383175  0.58737793  0.46905220     0.12300
H440        H  0.38356130  0.59116657  0.32448117     0.14200
C441        C  0.51011586  0.70289529  0.36725635    -0.05800
C442        C  0.51392018  0.71946660  0.32445733    -0.05700
C443        C  0.51311210  0.75961690  0.31936045    -0.23900
C444        C  0.50808842  0.78391597  0.35685808     0.18300
C445        C  0.50375539  0.76748403  0.39996346     0.15600
C446        C  0.50524787  0.72721354  0.40493859    -0.18900
C447        C  0.49744296  0.79156931  0.43734594    -0.20700
C448        C  0.49521947  0.83156603  0.43208014    -0.13300
C449        C  0.50005962  0.84832354  0.38951880     0.03400
C450        C  0.50679101  0.82429284  0.35197351    -0.25400
H451        H  0.51752349  0.70135227  0.29489719     0.08500
H452        H  0.51591032  0.77168202  0.28608346     0.12100
H453        H  0.50189834  0.71480778  0.43808984     0.12000
H454        H  0.49388931  0.77947156  0.47060972     0.11800
H455        H  0.49014329  0.84949683  0.46152613     0.12300
H456        H  0.51012247  0.83692941  0.31893485     0.14200
C457        C  0.24866137  0.59748635  0.12395362    -0.05800
C458        C  0.26834400  0.58314270  0.08593500    -0.05700
C459        C  0.30862151  0.58105555  0.08533841    -0.23900
C460        C  0.33009774  0.59304053  0.12283054     0.18300
C461        C  0.31084433  0.60802546  0.16108185     0.15600
C462        C  0.27024715  0.61039970  0.16133719    -0.18900
C463        C  0.33256494  0.61990360  0.19855553    -0.20700
C464        C  0.37284503  0.61574644  0.19871629    -0.13300
C465        C  0.39217122  0.60071263  0.16082103     0.03400
C466        C  0.37051532  0.58987406  0.12276753    -0.25400
H467        H  0.25258787  0.57337614  0.05649882     0.08500
H468        H  0.32297713  0.56953502  0.05576526     0.12100
H469        H  0.25552711  0.62143686  0.19095907     0.12000
H470        H  0.31835931  0.63239677  0.22767383     0.11800
H471        H  0.38891118  0.62475197  0.22825760     0.12300
H472        H  0.38505736  0.57834200  0.09326841     0.14200
C473        C  0.51449156  0.70677956  0.15628511    -0.05800
C474        C  0.53326568  0.72721848  0.19089596    -0.05700
C475        C  0.53426194  0.76757653  0.19061346    -0.23900
C476        C  0.51566225  0.78817568  0.15633913     0.18300
C477        C  0.49682579  0.76789969  0.12125409     0.15600
C478        C  0.49669543  0.72733318  0.12121030    -0.18900
C479        C  0.47814671  0.78856073  0.08706929    -0.20700
C480        C  0.47763887  0.82896357  0.08796550    -0.13300
C481        C  0.49596512  0.84947918  0.12295600     0.03400
C482        C  0.51527553  0.82870005  0.15685428    -0.25400
H483        H  0.54755252  0.71193967  0.21792495     0.08500
H484        H  0.54940950  0.78271914  0.21730023     0.12100
H485        H  0.48200514  0.71178330  0.09443961     0.12000
H486        H  0.46367289  0.77347880  0.05980944     0.11800
H487        H  0.46280924  0.84411221  0.06123177     0.12300
H488        H  0.52957946  0.84395941  0.18411796     0.14200
C489        C  0.76759099  0.59854109  0.12010443    -0.05800
C490        C  0.74729554  0.61797304  0.08591125    -0.05700
C491        C  0.70683871  0.61863419  0.08542416    -0.23900
C492        C  0.68581614  0.60006181  0.11925656     0.18300
C493        C  0.70584850  0.58027400  0.15360629     0.15600
C494        C  0.74643698  0.57949340  0.15371441    -0.18900
C495        C  0.68495796  0.56177799  0.18754048    -0.20700
C496        C  0.64461614  0.56381248  0.18833980    -0.13300
C497        C  0.62435750  0.58344110  0.15446898     0.03400
C498        C  0.64516227  0.60113364  0.11959253    -0.25400
H499        H  0.76266456  0.63271909  0.05940800     0.08500
H500        H  0.69200967  0.63387648  0.05872123     0.12100
H501        H  0.76147600  0.56440423  0.18039278     0.12000
H502        H  0.69989982  0.54574374  0.21345569     0.11800
H503        H  0.62916457  0.54951983  0.21510949     0.12300
H504        H  0.62976521  0.61643740  0.09334386     0.14200
C505        C  0.49816551  0.33033395  0.12641696    -0.05800
C506        C  0.51563352  0.34863999  0.08947734    -0.05700
C507        C  0.51951414  0.38878329  0.08835473    -0.23900
C508        C  0.50624037  0.41161042  0.12425490     0.18300
C509        C  0.48867626  0.39372351  0.16162161     0.15600
C510        C  0.48446744  0.35327375  0.16234325    -0.18900
C511        C  0.47596189  0.41661822  0.19782966    -0.20700
C512        C  0.48105285  0.45670161  0.19733261    -0.13300
C513        C  0.49812228  0.47479810  0.16014863     0.03400
C514        C  0.51045058  0.45199590  0.12350929    -0.25400
H515        H  0.52639271  0.33191564  0.06118675     0.08500
H516        H  0.53321756  0.40195226  0.05955038     0.12100
H517        H  0.47121886  0.33969324  0.19119668     0.12000
H518        H  0.46210254  0.40351580  0.22655546     0.11800
H519        H  0.47105264  0.47365730  0.22582404     0.12300
H520        H  0.52378180  0.46560692  0.09470744     0.14200
C521        C  0.49547182  0.28742937  0.62743938     0.79700
N522        N  0.47278352  0.26896541  0.65803076    -0.78600
C523        C  0.47134258  0.22958600  0.65851514     0.82100
N524        N  0.49223685  0.20883728  0.62810973    -0.78600
C525        C  0.51468287  0.22699465  0.59756373     0.82200
N526        N  0.51643780  0.26609122  0.59758009    -0.80300
O527        O  0.56224223  0.58955901  0.62006266    -0.72300
O528        O  0.45251703  0.59115837  0.62363109    -0.72500
O529        O  0.50774139  0.64503118  0.62110951    -0.72400
O530        O  0.50661315  0.53518404  0.62272639    -0.72400
O531        O  0.50178485  0.53694650  0.69554353    -0.72400
O532        O  0.51607017  0.64584625  0.69355463    -0.72400
O533        O  0.45447217  0.59883255  0.69616001    -0.72300
O534        O  0.56360212  0.58408819  0.69279841    -0.72500
V535        V  0.50735425  0.59019832  0.62320919     1.35200
V536        V  0.50900882  0.59136688  0.69323508     1.35200
C537        C  0.58166328  0.58571921  0.65583192     0.76900
C538        C  0.43477206  0.59670177  0.66031316     0.77000
C539        C  0.51285722  0.66414946  0.65703085     0.76800
C540        C  0.50249431  0.51735049  0.65943868     0.76800
C541        C  0.81058432  0.59830733  0.62101396     0.79700
N542        N  0.83109487  0.62013407  0.59156088    -0.78600
C543        C  0.87038946  0.61982484  0.59242346     0.82100
N544        N  0.88926750  0.59815747  0.62332882    -0.78600
C545        C  0.86917054  0.57658942  0.65310347     0.82200
N546        N  0.82993406  0.57645845  0.65166122    -0.80300
C547        C  0.49477346  0.89232177  0.62458030     0.79700
N548        N  0.51581452  0.91172243  0.65599788    -0.78600
C549        C  0.51460148  0.95082986  0.65839402     0.82100
N550        N  0.49280031  0.97092862  0.62858729    -0.78600
C551        C  0.47186710  0.95192891  0.59680058     0.82200
N552        N  0.47263292  0.91265683  0.59508760    -0.80300
C553        C  0.20577794  0.59814100  0.62456919     0.79700
N554        N  0.18628361  0.61976713  0.65556244    -0.78600
C555        C  0.14700010  0.61990969  0.65615877     0.82100
N556        N  0.12710689  0.59879000  0.62526165    -0.78600
C557        C  0.14630307  0.57730506  0.59407297     0.82200
N558        N  0.18552101  0.57683366  0.59403764    -0.80300
C559        C  0.49745703  0.89075716  0.88470812     0.79700
N560        N  0.51816170  0.90939155  0.85256033    -0.78600
C561        C  0.51613800  0.94854868  0.84931734     0.82100
N562        N  0.49373812  0.96898946  0.87845800    -0.78600
C563        C  0.47301992  0.95061587  0.91041793     0.82200
N564        N  0.47486844  0.91158414  0.91344409    -0.80300
O565        O  0.56778734  0.59049140  0.91161457    -0.72300
O566        O  0.45847643  0.59151002  0.92545182    -0.72500
O567        O  0.51354517  0.53658394  0.92609621    -0.72400
O568        O  0.51272656  0.64552011  0.91130454    -0.72400
O569        O  0.50796832  0.63802630  0.83893139    -0.72400
O570        O  0.50513558  0.52919896  0.85416195    -0.72400
O571        O  0.45201211  0.58584611  0.85305358    -0.72300
O572        O  0.56083609  0.58106741  0.83976667    -0.72500
V573        V  0.51303330  0.59091767  0.91723779     1.35200
V574        V  0.50659060  0.58368954  0.84790222     1.35200
C575        C  0.58293346  0.58521320  0.87330070     0.76900
C576        C  0.43656191  0.58895407  0.89144660     0.77000
C577        C  0.50926153  0.51426867  0.89261415     0.76800
C578        C  0.51043417  0.66041045  0.87264754     0.76800
C579        C  0.20649171  0.59576002  0.87226920     0.79700
N580        N  0.18680622  0.57513423  0.90355698    -0.78600
C581        C  0.14756011  0.57717557  0.90530608     0.82100
N582        N  0.12810399  0.59962780  0.87562545    -0.78600
C583        C  0.14755868  0.62026131  0.84444762     0.82200
N584        N  0.18668173  0.61828934  0.84281886    -0.80300
C585        C  0.49874893  0.28456153  0.87627121     0.79700
N586        N  0.51873357  0.26440239  0.90781530    -0.78600
C587        C  0.51578350  0.22525569  0.90952568     0.82100
N588        N  0.49307041  0.20629971  0.87932253    -0.78600
C589        C  0.47301751  0.22639977  0.84785151     0.82200
N590        N  0.47590152  0.26537977  0.84650055    -0.80300
C591        C  0.81307187  0.59753915  0.87971947     0.79700
N592        N  0.83422643  0.61948526  0.90845974    -0.78600
C593        C  0.87319102  0.62016882  0.90572436     0.82100
N594        N  0.89147823  0.59905759  0.87351197    -0.78600
C595        C  0.87062882  0.57734300  0.84399065     0.82200
N596        N  0.83139703  0.57633164  0.84733690    -0.80300
C597        C  0.00819926  0.79727232  0.87759796     0.79700
N598        N  0.98774007  0.77655922  0.90796245    -0.78600
C599        C  0.98936784  0.73746480  0.90791510     0.82100
N600        N  0.01104280  0.71865383  0.87675835    -0.78600
C601        C  0.03141678  0.73883354  0.84590087     0.82200
N602        N  0.03019735  0.77820406  0.84644179    -0.80300
O603        O  0.99443088  0.04446375  0.88082792    -0.72300
O604        O  0.99146899  0.15428482  0.88290134    -0.72500
O605        O  0.93808775  0.09811242  0.88030988    -0.72400
O606        O  0.04778968  0.10053029  0.88354943    -0.72400
O607        O  0.04867766  0.10734116  0.81098071    -0.72400
O608        O  0.93976136  0.09266195  0.80752033    -0.72400
O609        O  0.98660563  0.15441862  0.81004277    -0.72300
O610        O  0.00189554  0.04557058  0.80832299    -0.72500
V611        V  0.99292759  0.09937862  0.88056448     1.35200
V612        V  0.99420940  0.09998602  0.81051880     1.35200
C613        C  0.99996804  0.02631994  0.84427468     0.76900
C614        C  0.98755201  0.17305339  0.84679710     0.77000
C615        C  0.92020509  0.09391893  0.84345948     0.76800
C616        C  0.06694949  0.10526205  0.84782131     0.76800
C617        C  0.29600395  0.09367343  0.88115918     0.79700
N618        N  0.31647946  0.07154925  0.91045807    -0.78600
C619        C  0.35570226  0.07064383  0.90893482     0.82100
N620        N  0.37463162  0.09152719  0.87741824    -0.78600
C621        C  0.35450143  0.11341726  0.84765011     0.82200
N622        N  0.31529053  0.11468722  0.84985761    -0.80300
C623        C  0.00256684  0.40186838  0.87812175     0.79700
N624        N  0.98199280  0.42136037  0.84647135    -0.78600
C625        C  0.98454318  0.46039368  0.84349286     0.82100
N626        N  0.00727091  0.48022056  0.87285020    -0.78600
C627        C  0.02780726  0.46112978  0.90471935     0.82200
N628        N  0.02560155  0.42199672  0.90706818    -0.80300
C629        C  0.69170580  0.08598566  0.88117602     0.79700
N630        N  0.67118569  0.10711633  0.91164221    -0.78600
C631        C  0.63203461  0.10615798  0.91175642     0.82100
N632        N  0.61311096  0.08436115  0.88085630    -0.78600
C633        C  0.63314960  0.06332012  0.85001177     0.82200
N634        N  0.67249109  0.06399884  0.85024301    -0.80300
C635        C  0.00349486  0.40174762  0.61558196     0.79700
N636        N  0.02605098  0.42255088  0.58739623    -0.78600
C637        C  0.02719550  0.46155802  0.59034161     0.82100
N638        N  0.00608570  0.48013762  0.62225349    -0.78600
C639        C  0.98377819  0.45974688  0.65113849     0.82200
N640        N  0.98220704  0.42054331  0.64754355    -0.80300
O641        O  0.99488090  0.04748168  0.57377391    -0.72300
O642        O  0.99606833  0.15651344  0.58829121    -0.72500
O643        O  0.04997061  0.10073710  0.58837498    -0.72400
O644        O  0.94087898  0.10359752  0.57376618    -0.72400
O645        O  0.93438261  0.09212213  0.64509222    -0.72400
O646        O  0.04271590  0.09956527  0.66091578    -0.72400
O647        O  0.98385064  0.15018493  0.65951835    -0.72300
O648        O  0.99297722  0.04139564  0.64639487    -0.72500
V649        V  0.99533808  0.10195306  0.58236433     1.35200
V650        V  0.98860671  0.09588114  0.65162864     1.35200
C651        C  0.99458244  0.02578762  0.60781412     0.76900
C652        C  0.98929538  0.17195543  0.62617502     0.77000
C653        C  0.06493166  0.10084543  0.62724238     0.76800
C654        C  0.91903069  0.09760977  0.60703985     0.76800
C655        C  0.68988398  0.08563975  0.62947965     0.79700
N656        N  0.67026744  0.10755274  0.59917730    -0.78600
C657        C  0.63094809  0.10790011  0.59907703     0.82100
N658        N  0.61125941  0.08681806  0.62976588    -0.78600
C659        C  0.63072766  0.06515754  0.66020276     0.82200
N660        N  0.66981599  0.06440256  0.65967784    -0.80300
C661        C  0.00902246  0.79649521  0.62723163     0.79700
N662        N  0.98754174  0.77684775  0.59633243    -0.78600
C663        C  0.98813525  0.73755919  0.59551558     0.82100
N664        N  0.00987804  0.71799395  0.62580589    -0.78600
C665        C  0.03124870  0.73744946  0.65667137     0.82200
N666        N  0.03088012  0.77657939  0.65722937    -0.80300
C667        C  0.29529568  0.09742489  0.61903111     0.79700
N668        N  0.31617851  0.07436321  0.59096758    -0.78600
C669        C  0.35508559  0.07225126  0.59462029     0.82100
N670        N  0.37343951  0.09310888  0.62683870    -0.78600
C671        C  0.35298757  0.11596198  0.65558786     0.82200
N672        N  0.31380448  0.11830268  0.65159625    -0.80300
O673        O  0.09426918  0.56892662  0.95403453    -0.72300
O674        O  0.03779455  0.51520084  0.54302865    -0.72500
O675        O  0.09316521  0.56874961  0.54463675    -0.72400
O676        O  0.03874276  0.51524225  0.95243069    -0.72400
O677        O  0.08181914  0.46935236  0.95354954    -0.72400
O678        O  0.13770817  0.52425553  0.54383032    -0.72400
O679        O  0.08159127  0.46994766  0.54316582    -0.72300
O680        O  0.13818870  0.52381158  0.95404693    -0.72500
V681        V  0.06688697  0.54114588  0.49848352     1.35200
V682        V  0.10900772  0.49771471  0.49862519     1.35200
C683        C  0.12590911  0.55571048  0.93918748     0.76900
C684        C  0.04995736  0.48329812  0.55788730     0.77000
C685        C  0.12480857  0.55578054  0.55961661     0.76800
C686        C  0.05057495  0.48286401  0.93797372     0.76800
O687        O  0.57782758  0.11752805  0.55006195    -0.72300
O688        O  0.52404725  0.17207097  0.95870295    -0.72500
O689        O  0.57820222  0.11663757  0.95948114    -0.72400
O690        O  0.52364992  0.17281040  0.54943460    -0.72400
O691        O  0.56815161  0.21702745  0.54897911    -0.72400
O692        O  0.62348096  0.16007225  0.96030966    -0.72400
O693        O  0.56871342  0.21611358  0.95927413    -0.72300
O694        O  0.62300216  0.16106137  0.54986496    -0.72500
V695        V  0.55181022  0.14560845  0.50442690     1.35200
V696        V  0.59495663  0.18771684  0.50460717     1.35200
C697        C  0.60971385  0.12982850  0.56510021     0.76900
C698        C  0.53708919  0.20355250  0.94378358     0.77000
C699        C  0.61031889  0.12858001  0.94508438     0.76800
C700        C  0.53646606  0.20461830  0.56415551     0.76800
O701        O  0.97930730  0.68425449  0.54659505    -0.72300
O702        O  0.92635462  0.62931807  0.95475361    -0.72500
O703        O  0.98040134  0.68401790  0.95608430    -0.72400
O704        O  0.92483020  0.62952338  0.54545302    -0.72400
O705        O  0.87965398  0.67335782  0.54407898    -0.72400
O706        O  0.93620050  0.72888822  0.95660772    -0.72400
O707        O  0.88157364  0.67361669  0.95451283    -0.72300
O708        O  0.93483032  0.72883750  0.54610763    -0.72500
V709        V  0.95185852  0.65764931  0.50078352     1.35200
V710        V  0.90893274  0.70031278  0.50035729     1.35200
C711        C  0.96641981  0.71606229  0.56145562     0.76900
C712        C  0.89489581  0.64212577  0.93921580     0.77000
C713        C  0.96775781  0.71583216  0.94143462     0.76800
C714        C  0.89252713  0.64188512  0.55942971     0.76800
O715        O  0.41849184  0.96126124  0.54759349    -0.72300
O716        O  0.36410013  0.01707070  0.95758141    -0.72500
O717        O  0.41883959  0.96074582  0.95800500    -0.72400
O718        O  0.36390586  0.01763816  0.54716928    -0.72400
O719        O  0.40916762  0.06110085  0.54773727    -0.72400
O720        O  0.46352677  0.00479168  0.95799782    -0.72400
O721        O  0.40952403  0.06032251  0.95710328    -0.72300
O722        O  0.46297238  0.00549388  0.54858072    -0.72500
V723        V  0.39220161  0.99002379  0.50258072     1.35200
V724        V  0.43542567  0.03205324  0.50284163     1.35200
C725        C  0.45007485  0.97383922  0.56317149     0.76900
C726        C  0.37744701  0.04829202  0.94229227     0.77000
C727        C  0.45071301  0.97302030  0.94322140     0.76800
C728        C  0.37710943  0.04918746  0.56224002     0.76800
O729        O  0.09406221  0.63067404  0.79657137    -0.72300
O730        O  0.04031738  0.68467777  0.70539692    -0.72500
O731        O  0.09438617  0.62965230  0.70595608    -0.72400
O732        O  0.04007047  0.68599678  0.79595808    -0.72400
O733        O  0.08476053  0.73001664  0.79614234    -0.72400
O734        O  0.13920842  0.67354168  0.70576783    -0.72400
O735        O  0.08432092  0.72941338  0.70631700    -0.72300
O736        O  0.13965864  0.67375600  0.79556767    -0.72500
V737        V  0.06809584  0.65863942  0.75100542     1.35200
V738        V  0.11113956  0.70085191  0.75096907     1.35200
C739        C  0.12620777  0.64264912  0.81104967     0.76900
C740        C  0.05298626  0.71629542  0.69065910     0.77000
C741        C  0.12603372  0.64199801  0.69061735     0.76800
C742        C  0.05302489  0.71760359  0.81119535     0.76800
O743        O  0.40531117  0.12320876  0.70590170    -0.72300
O744        O  0.46198922  0.17449735  0.79740695    -0.72500
O745        O  0.40633421  0.12160497  0.79657080    -0.72400
O746        O  0.46096731  0.17644757  0.70675734    -0.72400
O747        O  0.41805577  0.22245675  0.70900320    -0.72400
O748        O  0.36233738  0.16661442  0.79800869    -0.72400
O749        O  0.41892599  0.22042478  0.79902146    -0.72300
O750        O  0.36134744  0.16823932  0.70774859    -0.72500
V751        V  0.43273886  0.14985897  0.75163079     1.35200
V752        V  0.39095260  0.19357473  0.75341687     1.35200
C753        C  0.37378779  0.13674882  0.69130406     0.76900
C754        C  0.45019716  0.20617563  0.81366428     0.76600
C755        C  0.37514875  0.13480188  0.81267013     0.76800
C756        C  0.44911217  0.20885251  0.69285704     0.76800
O757        O  0.97634367  0.51239026  0.79294448    -0.72300
O758        O  0.92188790  0.56702621  0.70254809    -0.72500
O759        O  0.92241703  0.56755374  0.79322407    -0.72400
O760        O  0.97577908  0.51185154  0.70215225    -0.72400
O761        O  0.93136391  0.46756860  0.70254440    -0.72400
O762        O  0.87710448  0.52418024  0.79315786    -0.72400
O763        O  0.87657252  0.52365600  0.70309997    -0.72300
O764        O  0.93185946  0.46816738  0.79280111    -0.72500
V765        V  0.94821039  0.53880404  0.74770522     1.35200
V766        V  0.90508370  0.49669703  0.74789605     1.35200
C767        C  0.96334810  0.48109912  0.80833865     0.76900
C768        C  0.88997854  0.55477534  0.68759463     0.77000
C769        C  0.89072541  0.55543474  0.80864179     0.76800
C770        C  0.96270820  0.48037640  0.68677308     0.76800
O771        O  0.62472418  0.01083256  0.79863683    -0.72300
O772        O  0.56750945  0.95719313  0.70862905    -0.72500
O773        O  0.62296514  0.01174138  0.70874361    -0.72400
O774        O  0.56885360  0.95605587  0.79860896    -0.72400
O775        O  0.52484777  0.00107454  0.80006348    -0.72400
O776        O  0.57874060  0.05656498  0.71060425    -0.72400
O777        O  0.52405642  0.00277080  0.70942393    -0.72300
O778        O  0.57983029  0.05493493  0.80122855    -0.72500
V779        V  0.59517130  0.98479163  0.75369577     1.35200
V780        V  0.55275459  0.02793257  0.75536507     1.35200
C781        C  0.61185375  0.04204822  0.81521944     0.76900
C782        C  0.53632275  0.97112308  0.69346508     0.77000
C783        C  0.60988580  0.04351300  0.69438377     0.76800
C784        C  0.53752732  0.96919922  0.81449097     0.76800
C785        C  0.10725439  0.10272221  0.63312415    -0.05800
C786        C  0.12336021  0.11149036  0.67539359    -0.05700
C787        C  0.16341908  0.11374148  0.68082093    -0.23900
C788        C  0.18808306  0.10680230  0.64429020     0.18300
C789        C  0.17207268  0.09765827  0.60173708     0.15600
C790        C  0.13185899  0.09601650  0.59634596    -0.18900
C791        C  0.19653813  0.08982226  0.56534042    -0.20700
C792        C  0.23651321  0.09036441  0.57115799    -0.13300
C793        C  0.25287679  0.09931637  0.61331588     0.03400
C794        C  0.22843333  0.10811192  0.64971243    -0.25400
H795        H  0.10494413  0.11688792  0.70419966     0.08500
H796        H  0.17516191  0.12055433  0.71360141     0.12100
H797        H  0.11975731  0.08900287  0.56363449     0.12000
H798        H  0.18477217  0.08276513  0.53251230     0.11800
H799        H  0.25470661  0.08369936  0.54247887     0.12300
H800        H  0.24072954  0.11470210  0.68243852     0.14200
C801        C  0.00762196  0.83907173  0.62985765    -0.05800
C802        C  0.01394032  0.85755695  0.67143202    -0.05700
C803        C  0.01207269  0.89765011  0.67505512    -0.23900
C804        C  0.00464542  0.92010989  0.63712332     0.18300
C805        C  0.99886506  0.90204076  0.59487816     0.15600
C806        C  0.99994688  0.86149037  0.59154019    -0.18900
C807        C  0.99217767  0.92492362  0.55687493    -0.20700
C808        C  0.99103115  0.96525896  0.56084116    -0.13300
C809        C  0.99619437  0.98329207  0.60297090     0.03400
C810        C  0.00299223  0.96040997  0.64095761    -0.25400
H811        H  0.01964084  0.84093372  0.70148023     0.08500
H812        H  0.01632327  0.91120248  0.70750218     0.12100
H813        H  0.99536587  0.84748019  0.55924053     0.12000
H814        H  0.98790368  0.91162558  0.52419788     0.11800
H815        H  0.98577035  0.98231276  0.53102554     0.12300
H816        H  0.00733371  0.97395853  0.67357866     0.14200
C817        C  0.87661359  0.09715820  0.60228701    -0.05800
C818        C  0.85819385  0.11272362  0.56427940    -0.05700
C819        C  0.81777100  0.11380690  0.56165505    -0.23900
C820        C  0.79528673  0.09891543  0.59673767     0.18300
C821        C  0.81385013  0.08236024  0.63437705     0.15600
C822        C  0.85415638  0.08179003  0.63699942    -0.18900
C823        C  0.79189623  0.06670173  0.66909214    -0.20700
C824        C  0.75175563  0.06800573  0.66727115    -0.13300
C825        C  0.73264225  0.08482678  0.63043424     0.03400
C826        C  0.75468256  0.10020976  0.59504123    -0.25400
H827        H  0.87500568  0.12473121  0.53706918     0.08500
H828        H  0.80411010  0.12651983  0.53245814     0.12100
H829        H  0.86806468  0.06938088  0.66629971     0.12000
H830        H  0.80586908  0.05324810  0.69758246     0.11800
H831        H  0.73570509  0.05587108  0.69500737     0.12300
H832        H  0.74037354  0.11291545  0.56621302     0.14200
C833        C  0.98796356  0.21435441  0.63109314    -0.05800
C834        C  0.96949405  0.23186539  0.66809855    -0.05700
C835        C  0.96788991  0.27214257  0.67208058    -0.23900
C836        C  0.98528300  0.29547734  0.63949690     0.18300
C837        C  0.00419503  0.27793720  0.60243315     0.15600
C838        C  0.00517263  0.23762864  0.59832789    -0.18900
C839        C  0.02200475  0.30094742  0.57006556    -0.20700
C840        C  0.02138158  0.34104620  0.57442463    -0.13300
C841        C  0.00277695  0.35906191  0.61115070     0.03400
C842        C  0.98444221  0.33596748  0.64348500    -0.25400
H843        H  0.95587664  0.21440972  0.69364605     0.08500
H844        H  0.95315504  0.28502559  0.70061844     0.12100
H845        H  0.01974376  0.22435982  0.56983075     0.12000
H846        H  0.03660592  0.28793933  0.54145457     0.11800
H847        H  0.03560527  0.35793441  0.54881541     0.12300
H848        H  0.97008012  0.34935690  0.67202253     0.14200
C849        C  0.73449722  0.08816426  0.88128401    -0.05800
C850        C  0.75403262  0.10211160  0.91962972    -0.05700
C851        C  0.79418942  0.10579821  0.91976949    -0.23900
C852        C  0.81565349  0.09592396  0.88146167     0.18300
C853        C  0.79646837  0.08196100  0.84265706     0.15600
C854        C  0.75605330  0.07781664  0.84291356    -0.18900
C855        C  0.81804482  0.07268680  0.80416868    -0.20700
C856        C  0.85822960  0.07712911  0.80405545    -0.13300
C857        C  0.87759443  0.09041007  0.84276473     0.03400
C858        C  0.85599188  0.09983405  0.88136317    -0.25400
H859        H  0.73824924  0.11018238  0.94972763     0.08500
H860        H  0.80845513  0.11660837  0.94974891     0.12100
H861        H  0.74138592  0.06736760  0.81297611     0.12000
H862        H  0.80375459  0.06190489  0.77428109     0.11800
H863        H  0.87420566  0.06962196  0.77390169     0.12300
H864        H  0.87053589  0.11038795  0.91133514     0.14200
C865        C  0.00036186  0.35907808  0.88053346    -0.05800
C866        C  0.01710202  0.33918985  0.91684416    -0.05700
C867        C  0.01643807  0.29883994  0.91835478    -0.23900
C868        C  0.99940562  0.27752344  0.88334516     0.18300
C869        C  0.98209246  0.29711927  0.84690585     0.15600
C870        C  0.98229041  0.33768736  0.84598115    -0.18900
C871        C  0.96567654  0.27577408  0.81147923    -0.20700
C872        C  0.96735962  0.23540261  0.81151551    -0.13300
C873        C  0.98467535  0.21566954  0.84748999     0.03400
C874        C  0.00010856  0.23695453  0.88369805    -0.25400
H875        H  0.03093615  0.35480103  0.94411447     0.08500
H876        H  0.02979009  0.28429487  0.94659483     0.12100
H877        H  0.96926274  0.35247938  0.81770284     0.12000
H878        H  0.95209638  0.29033012  0.78342842     0.11800
H879        H  0.95502216  0.21956628  0.78344314     0.12300
H880        H  0.01372420  0.22197444  0.91148139     0.14200
C881        C  0.25308867  0.09446585  0.88299617    -0.05800
C882        C  0.23322300  0.07760319  0.91918049    -0.05700
C883        C  0.19279460  0.07736779  0.92030172    -0.23900
C884        C  0.17139489  0.09378248  0.88514894     0.18300
C885        C  0.19102435  0.11118931  0.84893195     0.15600
C886        C  0.23158869  0.11160331  0.84819056    -0.18900
C887        C  0.16976854  0.12754624  0.81370800    -0.20700
C888        C  0.12945910  0.12550863  0.81339971    -0.13300
C889        C  0.10958732  0.10799815  0.84897648     0.03400
C890        C  0.13076726  0.09270032  0.88522388    -0.25400
H891        H  0.24891425  0.06445546  0.94668520     0.08500
H892        H  0.17827602  0.06396043  0.94841512     0.12100
H893        H  0.24634215  0.12467317  0.81999949     0.12000
H894        H  0.18442491  0.14184272  0.78635980     0.11800
H895        H  0.11375428  0.13801141  0.78550909     0.12300
H896        H  0.11571138  0.07911596  0.91287038     0.14200
C897        C  0.00554026  0.84011929  0.87852038    -0.05800
C898        C  0.98851784  0.85910369  0.91566354    -0.05700
C899        C  0.98433693  0.89924096  0.91646673    -0.23900
C900        C  0.99704002  0.92134331  0.88016984     0.18300
C901        C  0.01443490  0.90276852  0.84278888     0.15600
C902        C  0.01875651  0.86233403  0.84224534    -0.18900
C903        C  0.02698863  0.92496722  0.80644256    -0.20700
C904        C  0.02154984  0.96502977  0.80653810    -0.13300
C905        C  0.00450503  0.98378864  0.84367564     0.03400
C906        C  0.99253727  0.96169526  0.88059660    -0.25400
H907        H  0.97821650  0.84291603  0.94426644     0.08500
H908        H  0.97079086  0.91298143  0.94527935     0.12100
H909        H  0.03172219  0.84820311  0.81327106     0.12000
H910        H  0.04130980  0.91129740  0.77816177     0.11800
H911        H  0.03139685  0.98144527  0.77788868     0.12300
H912        H  0.97934672  0.97583031  0.90944560     0.14200
C913        C  0.62533813  0.58421023  0.86760938    -0.05800
C914        C  0.64166779  0.57348421  0.82603942    -0.05700
C915        C  0.68172051  0.57328268  0.82021267    -0.23900
C916        C  0.70616190  0.58409114  0.85565683     0.18300
C917        C  0.68997740  0.59496476  0.89757562     0.15600
C918        C  0.64977639  0.59464150  0.90339484    -0.18900
C919        C  0.71423346  0.60636341  0.93290178    -0.20700
C920        C  0.75414062  0.60719408  0.92673644    -0.13300
C921        C  0.77066818  0.59621283  0.88529575     0.03400
C922        C  0.74644390  0.58448619  0.84983957    -0.25400
H923        H  0.62343543  0.56523488  0.79797784     0.08500
H924        H  0.69361425  0.56491669  0.78797212     0.12100
H925        H  0.63753492  0.60310473  0.93556708     0.12000
H926        H  0.70235733  0.61481359  0.96524736     0.11800
H927        H  0.77212699  0.61614891  0.95475568     0.12300
H928        H  0.75882286  0.57627524  0.81764942     0.14200
C929        C  0.50912215  0.47180711  0.89796255    -0.05800
C930        C  0.51099306  0.45489604  0.94082493    -0.05700
C931        C  0.51048737  0.41465640  0.94542587    -0.23900
C932        C  0.50803571  0.39069697  0.90725480     0.18300
C933        C  0.50627949  0.40757908  0.86410674     0.15600
C934        C  0.50696903  0.44781909  0.85976511    -0.18900
C935        C  0.50337882  0.38399630  0.82584037    -0.20700
C936        C  0.50111727  0.34403049  0.83016447    -0.13300
C937        C  0.50262162  0.32682422  0.87276904     0.03400
C938        C  0.50673825  0.35024976  0.91132013    -0.25400
H939        H  0.51264663  0.47277070  0.97081938     0.08500
H940        H  0.51169373  0.40229741  0.97877260     0.12100
H941        H  0.50555517  0.46043640  0.82650840     0.12000
H942        H  0.50246640  0.39650627  0.79258745     0.11800
H943        H  0.49838339  0.32645589  0.80002268     0.12300
H944        H  0.50773876  0.33712454  0.94432127     0.14200
C945        C  0.24899043  0.59308906  0.86906962    -0.05800
C946        C  0.26674310  0.59401839  0.82663573    -0.05700
C947        C  0.30687785  0.59213230  0.82281948    -0.23900
C948        C  0.33007376  0.59057240  0.86136529     0.18300
C949        C  0.31262506  0.58967750  0.90431686     0.15600
C950        C  0.27207485  0.59031427  0.90790726    -0.18900
C951        C  0.33609926  0.58858428  0.94280736    -0.20700
C952        C  0.37641923  0.58855594  0.93875265    -0.13300
C953        C  0.39395843  0.58934489  0.89610946     0.03400
C954        C  0.37045361  0.59019580  0.85753103    -0.25400
H955        H  0.24947531  0.59571054  0.79627440     0.08500
H956        H  0.31985962  0.59200531  0.78976733     0.12100
H957        H  0.25855091  0.58975660  0.94078286     0.12000
H958        H  0.32327294  0.58801614  0.97599543     0.11800
H959        H  0.39387030  0.58776613  0.96900887     0.12300
H960        H  0.38354356  0.59092202  0.82441630     0.14200
C961        C  0.51019812  0.70290164  0.86722691    -0.05800
C962        C  0.51409343  0.71948749  0.82444829    -0.05700
C963        C  0.51329028  0.75963951  0.81936896    -0.23900
C964        C  0.50817508  0.78392494  0.85686161     0.18300
C965        C  0.50375503  0.76747833  0.89994642     0.15600
C966        C  0.50524870  0.72720635  0.90490715    -0.18900
C967        C  0.49735210  0.79155031  0.93731984    -0.20700
C968        C  0.49512195  0.83154816  0.93206380    -0.13300
C969        C  0.50004416  0.84832079  0.88952288     0.03400
C970        C  0.50686877  0.82430233  0.85198915    -0.25400
H971        H  0.51776350  0.70138248  0.79489195     0.08500
H972        H  0.51616007  0.77171722  0.78610780     0.12100
H973        H  0.50182864  0.71478809  0.93804209     0.12000
H974        H  0.49373194  0.77944097  0.97056784     0.11800
H975        H  0.48997496  0.84946715  0.96150273     0.12300
H976        H  0.51026612  0.83694813  0.81896465     0.14200
C977        C  0.24864772  0.59749584  0.62394724    -0.05800
C978        C  0.26833434  0.58321162  0.58590219    -0.05700
C979        C  0.30861217  0.58112668  0.58530911    -0.23900
C980        C  0.33008384  0.59305598  0.62282830     0.18300
C981        C  0.31082496  0.60797480  0.66111002     0.15600
C982        C  0.27022803  0.61034780  0.66136291    -0.18900
C983        C  0.33253965  0.61978716  0.69861603    -0.20700
C984        C  0.37282035  0.61563848  0.69877092    -0.13300
C985        C  0.39215342  0.60067542  0.66084293     0.03400
C986        C  0.37050223  0.58989626  0.62276271    -0.25400
H987        H  0.25258104  0.57349018  0.55644372     0.08500
H988        H  0.32297284  0.56964766  0.55571960     0.12100
H989        H  0.25550343  0.62133445  0.69100671     0.12000
H990        H  0.31832940  0.63222030  0.72776599     0.11800
H991        H  0.38888127  0.62459328  0.72833667     0.12300
H992        H  0.38504836  0.57841711  0.59323890     0.14200
C993        C  0.51445148  0.70676913  0.65632206    -0.05800
C994        C  0.53326917  0.72720866  0.69089937    -0.05700
C995        C  0.53427447  0.76756634  0.69060499    -0.23900
C996        C  0.51564020  0.78816352  0.65635447     0.18300
C997        C  0.49675797  0.76788591  0.62130457     0.15600
C998        C  0.49661663  0.72732014  0.62127234    -0.18900
C999        C  0.47805195  0.78854453  0.58713793    -0.20700
C1000       C  0.47756447  0.82894741  0.58801707    -0.13300
C1001       C  0.49593501  0.84946498  0.62297414     0.03400
C1002       C  0.51526988  0.82868767  0.65685515    -0.25400
H1003       H  0.54759026  0.71193013  0.71790401     0.08500
H1004       H  0.54946358  0.78271061  0.71725776     0.12100
H1005       H  0.48189398  0.71176849  0.59452734     0.12000
H1006       H  0.46354454  0.77346096  0.55990374     0.11800
H1007       H  0.46271447  0.84409440  0.56129732     0.12300
H1008       H  0.52960932  0.84394834  0.68409232     0.14200
C1009       C  0.76758242  0.59854696  0.62009543    -0.05800
C1010       C  0.74728225  0.61798340  0.58590922    -0.05700
C1011       C  0.70682482  0.61865135  0.58543370    -0.23900
C1012       C  0.68580534  0.60007987  0.61926969     0.18300
C1013       C  0.70584181  0.58028483  0.65361021     0.15600
C1014       C  0.74643111  0.57949937  0.65370851    -0.18900
C1015       C  0.68495438  0.56178300  0.68754247    -0.20700
C1016       C  0.64461231  0.56382064  0.68835184    -0.13300
C1017       C  0.62434892  0.58345733  0.65449120     0.03400
C1018       C  0.64515072  0.60115566  0.61961550    -0.25400
H1019       H  0.76264817  0.63272836  0.55940276     0.08500
H1020       H  0.69199284  0.63389744  0.55873594     0.12100
H1021       H  0.76147307  0.56440576  0.68038132     0.12000
H1022       H  0.69989953  0.54573595  0.71344366     0.11800
H1023       H  0.62916378  0.54951905  0.71511693     0.12300
H1024       H  0.62975069  0.61646356  0.59337246     0.14200
C1025       C  0.49817783  0.33032183  0.62643206    -0.05800
C1026       C  0.51564819  0.34862805  0.58949399    -0.05700
C1027       C  0.51952513  0.38877184  0.58836974    -0.23900
C1028       C  0.50624440  0.41159953  0.62426569     0.18300
C1029       C  0.48867853  0.39371235  0.66163112     0.15600
C1030       C  0.48447436  0.35326208  0.66235522    -0.18900
C1031       C  0.47595789  0.41660732  0.69783573    -0.20700
C1032       C  0.48104765  0.45669062  0.69733859    -0.13300
C1033       C  0.49812021  0.47478735  0.66015671     0.03400
C1034       C  0.51045106  0.45198558  0.62351831    -0.25400
H1035       H  0.52641199  0.33190353  0.56120600     0.08500
H1036       H  0.53323266  0.40194099  0.55956849     0.12100
H1037       H  0.47122449  0.33968165  0.69120786     0.12000
H1038       H  0.46209509  0.40350508  0.72655940     0.11800
H1039       H  0.47104426  0.47364617  0.72582871     0.12300
H1040       H  0.52378337  0.46559706  0.59471740     0.14200
loop_ 
_geom_bond_atom_site_label_1 
_geom_bond_atom_site_label_2 
_geom_bond_distance 
_geom_bond_site_symmetry_2 
_ccdc_geom_bond_type 
C1            N2   1.366       .  A
C1            N6   1.359       .  A
C1          C505   1.488       .  S
N2            C3   1.364       .  A
C3            N4   1.358       .  A
C3          C236   1.471       .  S
N4            C5   1.355       .  A
C5            N6   1.354       .  A
C5          C180   1.463       .  S
O7           V15   1.901       .  S
O7           C17   1.265       .  A
O8           V15   1.897       .  S
O8           C18   1.265       .  A
O9           V15   1.899       .  S
O9           C19   1.265       .  A
O10          V15   1.904       .  S
O10          C20   1.266       .  A
O11          V16   1.902       .  S
O11          C20   1.266       .  A
O12          V16   1.902       .  S
O12          C19   1.265       .  A
O13          V16   1.905       .  S
O13          C18   1.266       .  A
O14          V16   1.904       .  S
O14          C17   1.266       .  A
V15          V16   2.082       .  T
C17         C497   1.479       .  S
C18         C465   1.480       .  S
C19         C473   1.476       .  S
C20         C513   1.481       .  S
C21          N22   1.362       .  A
C21          N26   1.362       .  A
C21         C489   1.488       .  S
N22          C23   1.360       .  A
C23          N24   1.356       .  A
C23         C194   1.466       .  S
N24          C25   1.356       .  A
C25          N26   1.358       .  A
C25         C248   1.464       .  S
C27          N28   1.358       .  A
C27          N32   1.361       .  A
C27         C481   1.484       .  S
N28          C29   1.355       .  A
C29          N30   1.357       .  A
C29         C262   1.461       .  S
N30          C31   1.357       .  A
C31          N32   1.360       .  A
C31         C205   1.465       .  S
C33          N34   1.361       .  A
C33          N38   1.360       .  A
C33         C457   1.483       .  S
N34          C35   1.359       .  A
C35          N36   1.358       .  A
C35         C221   1.465       .  S
N36          C37   1.357       .  A
C37          N38   1.357       .  A
C37         C165   1.466       .  S
C39          N40   1.362       .  A
C39          N44   1.359       .  A
C39         C449   1.479       .  S
N40          C41   1.361       .  A
C41          N42   1.356       .  A
C41         C264   1.465       .  S
N42          C43   1.354       .  A
C43          N44   1.355       .  A
C43         C207   1.461       .  S
O45          V53   1.902       .  S
O45          C55   1.266       .  A
O46          V53   1.903       .  S
O46          C56   1.266       .  A
O47          V53   1.900       .  S
O47          C57   1.264       .  A
O48          V53   1.899       .  S
O48          C58   1.265       .  A
O49          V54   1.902       .  S
O49          C58   1.265       .  A
O50          V54   1.897       .  S
O50          C57   1.265       .  A
O51          V54   1.896       .  S
O51          C56   1.264       .  A
O52          V54   1.894       .  S
O52          C55   1.263       .  A
V53          V54   2.086       .  T
C55         C393   1.477       .  S
C56         C433   1.480       .  S
C57         C409   1.479       .  S
C58         C441   1.480       .  S
C59          N60   1.361       .  A
C59          N64   1.359       .  A
C59         C425   1.476       .  S
N60          C61   1.360       .  A
C61          N62   1.356       .  A
C61         C163   1.464       .  S
N62          C63   1.355       .  A
C63          N64   1.356       .  A
C63         C219   1.462       .  S
C65          N66   1.359       .  A
C65          N70   1.357       .  A
C65         C417   1.473       .  S
N66          C67   1.360       .  A
C67          N68   1.359       .  A
C67         C178   1.466       .  S
N68          C69   1.358       .  A
C69          N70   1.354       .  A
C69         C234   1.462       .  S
C71          N72   1.355       .  A
C71          N76   1.362       .  A
C71         C401   1.477       .  S
N72          C73   1.351       .  A
C73          N74   1.356       .  A
C73         C192   1.457       .  S
N74          C75   1.359       .  A
C75          N76   1.362       .  A
C75         C249   1.466       .  S
C77          N78   1.358   1_455  A
C77          N82   1.364       .  A
C77         C377   1.485       .  S
N78          C79   1.354       .  A
C79          N80   1.354   1_655  A
C79         C193   1.459       .  S
N80          C81   1.357       .  A
C81          N82   1.363       .  A
C81         C222   1.466       .  S
O83          V91   1.901       .  S
O83          C93   1.265   1_655  A
O84          V91   1.901       .  S
O84          C94   1.265       .  A
O85          V91   1.898       .  S
O85          C95   1.265       .  A
O86          V91   1.900   1_455  S
O86          C96   1.265       .  A
O87          V92   1.902   1_455  S
O87          C96   1.266       .  A
O88          V92   1.903       .  S
O88          C95   1.266       .  A
O89          V92   1.901       .  S
O89          C94   1.265       .  A
O90          V92   1.901   1_455  S
O90          C93   1.265       .  A
V91          V92   2.083       .  T
C93         C385   1.479   1_545  S
C94         C353   1.478       .  S
C95         C337   1.480       .  S
C96         C369   1.479       .  S
C97          N98   1.360       .  A
C97         N102   1.362       .  A
C97         C361   1.486       .  S
N98          C99   1.358       .  A
C99         N100   1.358       .  A
C99         C206   1.467       .  S
N100        C101   1.359       .  A
C101        N102   1.359       .  A
C101        C235   1.468       .  S
C103        N104   1.360   1_455  A
C103        N108   1.362       .  A
C103        C345   1.485       .  S
N104        C105   1.357       .  A
C105        N106   1.358   1_655  A
C105        C247   1.466       .  S
N106        C107   1.357       .  A
C107        N108   1.359       .  A
C107        C166   1.468       .  S
C109        N110   1.359       .  A
C109        N114   1.363       .  A
C109        C329   1.483       .  S
N110        C111   1.355       .  A
C111        N112   1.354       .  A
C111        C179   1.461       .  S
N112        C113   1.356       .  A
C113        N114   1.361       .  A
C113        C261   1.465       .  S
C115        N116   1.358       .  A
C115        N120   1.363   1_455  A
C115        C321   1.482       .  S
N116        C117   1.353       .  A
C117        N118   1.355       .  A
C117        C164   1.461       .  S
N118        C119   1.358   1_455  A
C119        N120   1.361       .  A
C119        C250   1.466       .  S
O121        V129   1.900       .  S
O121        C131   1.264       .  A
O122        V129   1.895       .  S
O122        C132   1.265       .  A
O123        V129   1.899   1_455  S
O123        C133   1.265       .  A
O124        V129   1.902       .  S
O124        C134   1.264       .  A
O125        V130   1.891       .  S
O125        C134   1.264       .  A
O126        V130   1.896   1_455  S
O126        C133   1.264       .  A
O127        V130   1.899       .  S
O127        C132   1.264       .  A
O128        V130   1.896       .  S
O128        C131   1.265       .  A
V129        V130   2.084       .  T
C131        C289   1.477   1_545  S
C132        C313   1.474       .  S
C133        C265   1.476       .  S
C134        C297   1.474       .  S
C135        N136   1.361       .  A
C135        N140   1.357       .  A
C135        C305   1.480       .  S
N136        C137   1.360       .  A
C137        N138   1.358       .  A
C137        C177   1.463       .  S
N138        C139   1.356       .  A
C139        N140   1.352       .  A
C139        C263   1.459       .  S
C141        N142   1.361   1_455  A
C141        N146   1.358       .  A
C141        C281   1.475       .  S
N142        C143   1.360       .  A
C143        N144   1.356   1_655  A
C143        C191   1.461       .  S
N144        C145   1.354       .  A
C145        N146   1.354       .  A
C145        C220   1.458       .  S
C147        N148   1.357       .  A
C147        N152   1.364       .  A
C147        C273   1.478       .  S
N148        C149   1.352       .  A
C149        N150   1.354       .  A
C149        C208   1.459       .  S
N150        C151   1.358       .  A
C151        N152   1.363       .  A
C151        C233   1.467       .  S
O153        V681   1.896       .  S
O153        C163   1.264       .  A
O154        V161   1.897   1_554  S
O154        C164   1.263       .  A
O155        V161   1.899   1_554  S
O155        C165   1.263       .  A
O156        V681   1.901       .  S
O156        C166   1.264       .  A
O157        V682   1.905       .  S
O157        C166   1.265       .  A
O158        V162   1.903   1_554  S
O158        C165   1.264       .  A
O159        V162   1.898   1_554  S
O159        C164   1.264       .  A
O160        V682   1.902       .  S
O160        C163   1.264       .  A
V161        O673   1.896       .  S
V161        O676   1.901       .  S
V161        V162   2.089       .  T
V162        O677   1.905       .  S
V162        O680   1.902       .  S
O167        V175   1.898       .  S
O167        C177   1.264       .  A
O168        V695   1.901       .  S
O168        C178   1.264       .  A
O169        V695   1.898       .  S
O169        C179   1.263       .  A
O170        V175   1.898       .  S
O170        C180   1.263       .  A
O171        V176   1.899       .  S
O171        C180   1.264       .  A
O172        V696   1.898       .  S
O172        C179   1.263       .  A
O173        V696   1.900       .  S
O173        C178   1.264       .  A
O174        V176   1.900       .  S
O174        C177   1.263       .  A
V175        O688   1.901   1_554  S
V175        O689   1.898   1_554  S
V175        V176   2.090       .  T
V176        O692   1.898   1_554  S
V176        O693   1.900   1_554  S
O181        V189   1.894       .  S
O181        C191   1.263       .  A
O182        V709   1.896       .  S
O182        C192   1.262       .  A
O183        V709   1.898       .  S
O183        C193   1.263       .  A
O184        V189   1.901       .  S
O184        C194   1.265       .  A
O185        V190   1.901       .  S
O185        C194   1.263       .  A
O186        V710   1.895       .  S
O186        C193   1.263       .  A
O187        V710   1.895       .  S
O187        C192   1.263       .  A
O188        V190   1.900       .  S
O188        C191   1.263       .  A
V189        O702   1.896   1_554  S
V189        O703   1.898   1_554  S
V189        V190   2.090       .  T
V190        O706   1.895   1_554  S
V190        O707   1.895   1_554  S
O195        V203   1.902       .  S
O195        C205   1.264       .  A
O196        V723   1.902   1_545  S
O196        C206   1.264       .  A
O197        V723   1.900       .  S
O197        C207   1.264       .  A
O198        V203   1.899   1_545  S
O198        C208   1.264       .  A
O199        V204   1.896       .  S
O199        C208   1.262       .  A
O200        V724   1.895       .  S
O200        C207   1.263   1_545  A
O201        V724   1.902       .  S
O201        C206   1.264       .  A
O202        V204   1.900       .  S
O202        C205   1.264   1_545  A
V203        O716   1.902   1_564  S
V203        O717   1.900   1_554  S
V203        V204   2.090   1_565  T
V204        O720   1.895   1_554  S
V204        O721   1.902   1_554  S
O209        V217   1.894       .  S
O209        C219   1.262       .  A
O210        V217   1.892       .  S
O210        C220   1.262       .  A
O211        V217   1.898       .  S
O211        C221   1.264       .  A
O212        V217   1.897       .  S
O212        C222   1.264       .  A
O213        V218   1.905       .  S
O213        C222   1.264       .  A
O214        V218   1.902       .  S
O214        C221   1.264       .  A
O215        V218   1.900       .  S
O215        C220   1.264       .  A
O216        V218   1.902       .  S
O216        C219   1.264       .  A
V217        V218   2.090       .  T
O223        V231   1.893       .  S
O223        C233   1.263       .  A
O224        V231   1.894       .  S
O224        C234   1.261       .  A
O225        V231   1.898       .  S
O225        C235   1.263       .  A
O226        V231   1.899       .  S
O226        C236   1.265       .  A
O227        V232   1.910       .  S
O227        C236   1.265       .  A
O228        V232   1.907       .  S
O228        C235   1.265       .  A
O229        V232   1.903       .  S
O229        C234   1.265       .  A
O230        V232   1.910       .  S
O230        C233   1.265       .  A
V231        V232   2.089       .  T
O237        V245   1.897       .  S
O237        C247   1.263       .  A
O238        V245   1.896       .  S
O238        C248   1.263       .  A
O239        V245   1.896       .  S
O239        C249   1.263       .  A
O240        V245   1.895       .  S
O240        C250   1.263       .  A
O241        V246   1.907       .  S
O241        C250   1.265       .  A
O242        V246   1.905       .  S
O242        C249   1.265       .  A
O243        V246   1.904       .  S
O243        C248   1.264       .  A
O244        V246   1.904       .  S
O244        C247   1.265       .  A
V245        V246   2.089       .  T
O251        V259   1.905   1_545  S
O251        C261   1.264       .  A
O252        V259   1.899       .  S
O252        C262   1.264       .  A
O253        V259   1.899   1_545  S
O253        C263   1.264       .  A
O254        V259   1.905       .  S
O254        C264   1.264       .  A
O255        V260   1.894       .  S
O255        C264   1.263   1_545  A
O256        V260   1.894       .  S
O256        C263   1.262       .  A
O257        V260   1.896       .  S
O257        C262   1.263   1_545  A
O258        V260   1.896       .  S
O258        C261   1.264       .  A
V259        V260   2.090   1_565  T
C265        C266   1.405       .  A
C265        C270   1.404       .  A
C266        C267   1.397       .  A
C266        H275   1.083       .  S
C267        C268   1.401       .  A
C267        H276   1.080       .  S
C268        C274   1.406       .  A
C268        C269   1.414       .  A
C269        C271   1.399       .  A
C269        C270   1.402       .  A
C270        H277   1.084       .  S
C271        C272   1.394       .  A
C271        H278   1.083       .  S
C272        C273   1.407       .  A
C272        H279   1.083       .  S
C273        C274   1.405       .  A
C274        H280   1.084       .  S
C281        C282   1.405       .  A
C281        C286   1.407   1_455  A
C282        C283   1.392       .  A
C282        H291   1.083       .  S
C283        C284   1.397       .  A
C283        H292   1.080       .  S
C284        C290   1.399       .  A
C284        C285   1.413   1_455  A
C285        C287   1.403       .  A
C285        C286   1.406       .  A
C286        H293   1.084       .  S
C287        C288   1.400       .  A
C287        H294   1.082       .  S
C288        C289   1.407       .  A
C288        H295   1.083       .  S
C289        C290   1.403   1_655  A
C290        H296   1.084       .  S
C297        C298   1.406       .  A
C297        C302   1.401       .  A
C298        C299   1.401       .  A
C298        H307   1.083       .  S
C299        C300   1.404       .  A
C299        H308   1.083       .  S
C300        C306   1.406       .  A
C300        C301   1.413       .  A
C301        C303   1.396       .  A
C301        C302   1.397       .  A
C302        H309   1.085       .  S
C303        C304   1.390       .  A
C303        H310   1.082       .  S
C304        C305   1.407       .  A
C304        H311   1.083       .  S
C305        C306   1.409       .  A
C306        H312   1.084       .  S
C313        C314   1.405       .  A
C313        C318   1.403   1_655  A
C314        C315   1.399       .  A
C314        H323   1.083       .  S
C315        C316   1.403       .  A
C315        H324   1.083       .  S
C316        C322   1.405       .  A
C316        C317   1.414   1_655  A
C317        C319   1.398       .  A
C317        C318   1.400       .  A
C318        H325   1.085       .  S
C319        C320   1.393       .  A
C319        H326   1.084       .  S
C320        C321   1.408       .  A
C320        H327   1.083       .  S
C321        C322   1.407   1_455  A
C322        H328   1.084       .  S
C329        C330   1.408       .  A
C329        C334   1.407       .  A
C330        C331   1.396       .  A
C330        H339   1.083       .  S
C331        C332   1.400       .  A
C331        H340   1.083       .  S
C332        C338   1.403       .  A
C332        C333   1.413       .  A
C333        C335   1.401       .  A
C333        C334   1.406       .  A
C334        H341   1.084       .  S
C335        C336   1.399       .  A
C335        H342   1.081       .  S
C336        C337   1.406       .  A
C336        H343   1.083       .  S
C337        C338   1.406       .  A
C338        H344   1.084       .  S
C345        C346   1.407       .  A
C345        C350   1.409   1_455  A
C346        C347   1.398       .  A
C346        H355   1.083       .  S
C347        C348   1.402   1_455  A
C347        H356   1.084       .  S
C348        C354   1.404   1_655  A
C348        C349   1.413       .  A
C349        C351   1.403       .  A
C349        C350   1.404       .  A
C350        H357   1.084       .  S
C351        C352   1.398       .  A
C351        H358   1.083       .  S
C352        C353   1.405       .  A
C352        H359   1.083       .  S
C353        C354   1.406   1_655  A
C354        H360   1.084       .  S
C361        C362   1.408       .  A
C361        C366   1.407       .  A
C362        C363   1.399       .  A
C362        H371   1.083       .  S
C363        C364   1.402       .  A
C363        H372   1.084       .  S
C364        C370   1.406       .  A
C364        C365   1.413       .  A
C365        C367   1.400       .  A
C365        C366   1.404       .  A
C366        H373   1.084       .  S
C367        C368   1.397       .  A
C367        H374   1.082       .  S
C368        C369   1.404       .  A
C368        H375   1.083       .  S
C369        C370   1.408       .  A
C370        H376   1.084       .  S
C377        C378   1.409   1_455  A
C377        C382   1.407       .  A
C378        C379   1.396       .  A
C378        H387   1.083       .  S
C379        C380   1.399       .  A
C379        H388   1.083       .  S
C380        C386   1.404       .  A
C380        C381   1.414   1_655  A
C381        C383   1.401       .  A
C381        C382   1.407       .  A
C382        H389   1.084       .  S
C383        C384   1.398       .  A
C383        H390   1.081       .  S
C384        C385   1.406       .  A
C384        H391   1.083       .  S
C385        C386   1.406   1_455  A
C386        H392   1.084       .  S
C393        C394   1.406       .  A
C393        C398   1.404       .  A
C394        C395   1.397       .  A
C394        H403   1.082       .  S
C395        C396   1.400       .  A
C395        H404   1.081       .  S
C396        C402   1.405       .  A
C396        C397   1.415       .  A
C397        C399   1.399       .  A
C397        C398   1.402       .  A
C398        H405   1.084       .  S
C399        C400   1.393       .  A
C399        H406   1.084       .  S
C400        C401   1.408       .  A
C400        H407   1.083       .  S
C401        C402   1.404       .  A
C402        H408   1.084       .  S
C409        C410   1.407       .  A
C409        C414   1.404       .  A
C410        C411   1.400       .  A
C410        H419   1.083       .  S
C411        C412   1.403       .  A
C411        H420   1.083       .  S
C412        C418   1.407       .  A
C412        C413   1.414       .  A
C413        C415   1.399       .  A
C413        C414   1.400       .  A
C414        H421   1.085       .  S
C415        C416   1.392       .  A
C415        H422   1.082       .  S
C416        C417   1.404       .  A
C416        H423   1.083       .  S
C417        C418   1.406       .  A
C418        H424   1.084       .  S
C425        C426   1.404       .  A
C425        C430   1.407       .  A
C426        C427   1.394       .  A
C426        H435   1.083       .  S
C427        C428   1.399       .  A
C427        H436   1.081       .  S
C428        C434   1.402       .  A
C428        C429   1.413       .  A
C429        C431   1.403       .  A
C429        C430   1.407       .  A
C430        H437   1.084       .  S
C431        C432   1.400       .  A
C431        H438   1.082       .  S
C432        C433   1.406       .  A
C432        H439   1.083       .  S
C433        C434   1.405       .  A
C434        H440   1.084       .  S
C441        C442   1.406       .  A
C441        C446   1.406       .  A
C442        C443   1.399       .  A
C442        H451   1.083       .  S
C443        C444   1.402       .  A
C443        H452   1.081       .  S
C444        C450   1.406       .  A
C444        C445   1.414       .  A
C445        C447   1.401       .  A
C445        C446   1.403       .  A
C446        H453   1.084       .  S
C447        C448   1.396       .  A
C447        H454   1.084       .  S
C448        C449   1.406       .  A
C448        H455   1.083       .  S
C449        C450   1.406       .  A
C450        H456   1.084       .  S
C457        C458   1.407       .  A
C457        C462   1.409       .  A
C458        C459   1.395       .  A
C458        H467   1.083       .  S
C459        C460   1.400       .  A
C459        H468   1.083       .  S
C460        C466   1.402       .  A
C460        C461   1.413       .  A
C461        C463   1.403       .  A
C461        C462   1.407       .  A
C462        H469   1.084       .  S
C463        C464   1.400       .  A
C463        H470   1.082       .  S
C464        C465   1.406       .  A
C464        H471   1.083       .  S
C465        C466   1.405       .  A
C466        H472   1.084       .  S
C473        C474   1.404       .  A
C473        C478   1.406       .  A
C474        C475   1.397       .  A
C474        H483   1.083       .  S
C475        C476   1.402       .  A
C475        H484   1.083       .  S
C476        C482   1.402       .  A
C476        C477   1.413       .  A
C477        C479   1.402       .  A
C477        C478   1.404       .  A
C478        H485   1.084       .  S
C479        C480   1.398       .  A
C479        H486   1.084       .  S
C480        C481   1.407       .  A
C480        H487   1.083       .  S
C481        C482   1.408       .  A
C482        H488   1.084       .  S
C489        C490   1.408       .  A
C489        C494   1.408       .  A
C490        C491   1.400       .  A
C490        H499   1.083       .  S
C491        C492   1.403       .  A
C491        H500   1.084       .  S
C492        C498   1.407       .  A
C492        C493   1.413       .  A
C493        C495   1.401       .  A
C493        C494   1.404       .  A
C494        H501   1.084       .  S
C495        C496   1.397       .  A
C495        H502   1.082       .  S
C496        C497   1.404       .  A
C496        H503   1.083       .  S
C497        C498   1.408       .  A
C498        H504   1.084       .  S
C505        C506   1.409       .  A
C505        C510   1.408       .  A
C506        C507   1.397       .  A
C506        H515   1.083       .  S
C507        C508   1.400       .  A
C507        H516   1.083       .  S
C508        C514   1.406       .  A
C508        C509   1.414       .  A
C509        C511   1.402       .  A
C509        C510   1.408       .  A
C510        H517   1.084       .  S
C511        C512   1.399       .  A
C511        H518   1.083       .  S
C512        C513   1.406       .  A
C512        H519   1.083       .  S
C513        C514   1.406       .  A
C514        H520   1.084       .  S
C521        N522   1.366       .  A
C521        N526   1.359       .  A
C521       C1025   1.488       .  S
N522        C523   1.364       .  A
C523        N524   1.358       .  A
C523        C756   1.471       .  S
N524        C525   1.355       .  A
C525        N526   1.354       .  A
C525        C700   1.463       .  S
O527        V535   1.901       .  S
O527        C537   1.265       .  A
O528        V535   1.897       .  S
O528        C538   1.265       .  A
O529        V535   1.899       .  S
O529        C539   1.265       .  A
O530        V535   1.904       .  S
O530        C540   1.266       .  A
O531        V536   1.902       .  S
O531        C540   1.266       .  A
O532        V536   1.902       .  S
O532        C539   1.265       .  A
O533        V536   1.905       .  S
O533        C538   1.266       .  A
O534        V536   1.904       .  S
O534        C537   1.266       .  A
V535        V536   2.082       .  T
C537       C1017   1.479       .  S
C538        C985   1.480       .  S
C539        C993   1.476       .  S
C540       C1033   1.481       .  S
C541        N542   1.362       .  A
C541        N546   1.362       .  A
C541       C1009   1.488       .  S
N542        C543   1.360       .  A
C543        N544   1.355       .  A
C543        C714   1.466       .  S
N544        C545   1.356       .  A
C545        N546   1.358       .  A
C545        C768   1.464       .  S
C547        N548   1.358       .  A
C547        N552   1.361       .  A
C547       C1001   1.484       .  S
N548        C549   1.355       .  A
C549        N550   1.357       .  A
C549        C782   1.461       .  S
N550        C551   1.357       .  A
C551        N552   1.360       .  A
C551        C725   1.465       .  S
C553        N554   1.361       .  A
C553        N558   1.360       .  A
C553        C977   1.483       .  S
N554        C555   1.359       .  A
C555        N556   1.358       .  A
C555        C741   1.465       .  S
N556        C557   1.357       .  A
C557        N558   1.357       .  A
C557        C685   1.466       .  S
C559        N560   1.362       .  A
C559        N564   1.359       .  A
C559        C969   1.479       .  S
N560        C561   1.361       .  A
C561        N562   1.356       .  A
C561        C784   1.465       .  S
N562        C563   1.354       .  A
C563        N564   1.356       .  A
C563        C727   1.461       .  S
O565        V573   1.902       .  S
O565        C575   1.266       .  A
O566        V573   1.903       .  S
O566        C576   1.266       .  A
O567        V573   1.900       .  S
O567        C577   1.264       .  A
O568        V573   1.899       .  S
O568        C578   1.265       .  A
O569        V574   1.902       .  S
O569        C578   1.265       .  A
O570        V574   1.897       .  S
O570        C577   1.265       .  A
O571        V574   1.896       .  S
O571        C576   1.264       .  A
O572        V574   1.894       .  S
O572        C575   1.263       .  A
V573        V574   2.086       .  T
C575        C913   1.477       .  S
C576        C953   1.481       .  S
C577        C929   1.479       .  S
C578        C961   1.480       .  S
C579        N580   1.361       .  A
C579        N584   1.359       .  A
C579        C945   1.476       .  S
N580        C581   1.360       .  A
C581        N582   1.356       .  A
C581        C683   1.464       .  S
N582        C583   1.355       .  A
C583        N584   1.356       .  A
C583        C739   1.462       .  S
C585        N586   1.359       .  A
C585        N590   1.357       .  A
C585        C937   1.473       .  S
N586        C587   1.360       .  A
C587        N588   1.359       .  A
C587        C698   1.466       .  S
N588        C589   1.358       .  A
C589        N590   1.354       .  A
C589        C754   1.462       .  S
C591        N592   1.355       .  A
C591        N596   1.362       .  A
C591        C921   1.477       .  S
N592        C593   1.351       .  A
C593        N594   1.356       .  A
C593        C712   1.457       .  S
N594        C595   1.359       .  A
C595        N596   1.362       .  A
C595        C769   1.466       .  S
C597        N598   1.358   1_455  A
C597        N602   1.364       .  A
C597        C897   1.485       .  S
N598        C599   1.354       .  A
C599        N600   1.354   1_655  A
C599        C713   1.459       .  S
N600        C601   1.357       .  A
C601        N602   1.363       .  A
C601        C742   1.466       .  S
O603        V611   1.901       .  S
O603        C613   1.265       .  A
O604        V611   1.901       .  S
O604        C614   1.265       .  A
O605        V611   1.898       .  S
O605        C615   1.265       .  A
O606        V611   1.900   1_455  S
O606        C616   1.265       .  A
O607        V612   1.902   1_455  S
O607        C616   1.266       .  A
O608        V612   1.903       .  S
O608        C615   1.266       .  A
O609        V612   1.901       .  S
O609        C614   1.265       .  A
O610        V612   1.901   1_455  S
O610        C613   1.265   1_455  A
V611        V612   2.083       .  T
C613        C905   1.479   1_645  S
C614        C873   1.478       .  S
C615        C857   1.480       .  S
C616        C889   1.479       .  S
C617        N618   1.360       .  A
C617        N622   1.362       .  A
C617        C881   1.486       .  S
N618        C619   1.358       .  A
C619        N620   1.358       .  A
C619        C726   1.467       .  S
N620        C621   1.359       .  A
C621        N622   1.359       .  A
C621        C755   1.468       .  S
C623        N624   1.360   1_455  A
C623        N628   1.362       .  A
C623        C865   1.485       .  S
N624        C625   1.357       .  A
C625        N626   1.358   1_655  A
C625        C767   1.466       .  S
N626        C627   1.357       .  A
C627        N628   1.359       .  A
C627        C686   1.468       .  S
C629        N630   1.359       .  A
C629        N634   1.363       .  A
C629        C849   1.483       .  S
N630        C631   1.355       .  A
C631        N632   1.354       .  A
C631        C699   1.461       .  S
N632        C633   1.356       .  A
C633        N634   1.361       .  A
C633        C781   1.465       .  S
C635        N636   1.358       .  A
C635        N640   1.363   1_455  A
C635        C841   1.482       .  S
N636        C637   1.353       .  A
C637        N638   1.355       .  A
C637        C684   1.461       .  S
N638        C639   1.358   1_455  A
C639        N640   1.361       .  A
C639        C770   1.466       .  S
O641        V649   1.900       .  S
O641        C651   1.264       .  A
O642        V649   1.895       .  S
O642        C652   1.265       .  A
O643        V649   1.899   1_455  S
O643        C653   1.265       .  A
O644        V649   1.902       .  S
O644        C654   1.264       .  A
O645        V650   1.891       .  S
O645        C654   1.264       .  A
O646        V650   1.896   1_455  S
O646        C653   1.264       .  A
O647        V650   1.899       .  S
O647        C652   1.264       .  A
O648        V650   1.896       .  S
O648        C651   1.265       .  A
V649        V650   2.084       .  T
C651        C809   1.477   1_545  S
C652        C833   1.474       .  S
C653        C785   1.476       .  S
C654        C817   1.474       .  S
C655        N656   1.361       .  A
C655        N660   1.357       .  A
C655        C825   1.480       .  S
N656        C657   1.360       .  A
C657        N658   1.358       .  A
C657        C697   1.463       .  S
N658        C659   1.356       .  A
C659        N660   1.353       .  A
C659        C783   1.459       .  S
C661        N662   1.361   1_455  A
C661        N666   1.358       .  A
C661        C801   1.475       .  S
N662        C663   1.360       .  A
C663        N664   1.356   1_655  A
C663        C711   1.461       .  S
N664        C665   1.354       .  A
C665        N666   1.354       .  A
C665        C740   1.458       .  S
C667        N668   1.357       .  A
C667        N672   1.364       .  A
C667        C793   1.478       .  S
N668        C669   1.352       .  A
C669        N670   1.354       .  A
C669        C728   1.459       .  S
N670        C671   1.358       .  A
C671        N672   1.363       .  A
C671        C753   1.467       .  S
O673        C683   1.264       .  A
O674        V681   1.897       .  S
O674        C684   1.262       .  A
O675        V681   1.899       .  S
O675        C685   1.263       .  A
O676        C686   1.264       .  A
O677        C686   1.265       .  A
O678        V682   1.903       .  S
O678        C685   1.264       .  A
O679        V682   1.898       .  S
O679        C684   1.264       .  A
O680        C683   1.264       .  A
V681        V682   2.089       .  T
O687        V695   1.898       .  S
O687        C697   1.264       .  A
O688        C698   1.264       .  A
O689        C699   1.263       .  A
O690        V695   1.898       .  S
O690        C700   1.263       .  A
O691        V696   1.899       .  S
O691        C700   1.264       .  A
O692        C699   1.263       .  A
O693        C698   1.264       .  A
O694        V696   1.900       .  S
O694        C697   1.263       .  A
V695        V696   2.090       .  T
O701        V709   1.894       .  S
O701        C711   1.263       .  A
O702        C712   1.262       .  A
O703        C713   1.263       .  A
O704        V709   1.901       .  S
O704        C714   1.265       .  A
O705        V710   1.901       .  S
O705        C714   1.263       .  A
O706        C713   1.263       .  A
O707        C712   1.263       .  A
O708        V710   1.900       .  S
O708        C711   1.263       .  A
V709        V710   2.090       .  T
O715        V723   1.902       .  S
O715        C725   1.264       .  A
O716        C726   1.264       .  A
O717        C727   1.264       .  A
O718        V723   1.899   1_545  S
O718        C728   1.264       .  A
O719        V724   1.896       .  S
O719        C728   1.262       .  A
O720        C727   1.263   1_545  A
O721        C726   1.264       .  A
O722        V724   1.900       .  S
O722        C725   1.264   1_545  A
V723        V724   2.090   1_565  T
O729        V737   1.894       .  S
O729        C739   1.262       .  A
O730        V737   1.892       .  S
O730        C740   1.262       .  A
O731        V737   1.898       .  S
O731        C741   1.264       .  A
O732        V737   1.897       .  S
O732        C742   1.264       .  A
O733        V738   1.905       .  S
O733        C742   1.264       .  A
O734        V738   1.902       .  S
O734        C741   1.264       .  A
O735        V738   1.900       .  S
O735        C740   1.264       .  A
O736        V738   1.902       .  S
O736        C739   1.264       .  A
V737        V738   2.090       .  T
O743        V751   1.893       .  S
O743        C753   1.263       .  A
O744        V751   1.894       .  S
O744        C754   1.261       .  A
O745        V751   1.898       .  S
O745        C755   1.263       .  A
O746        V751   1.899       .  S
O746        C756   1.265       .  A
O747        V752   1.910       .  S
O747        C756   1.265       .  A
O748        V752   1.907       .  S
O748        C755   1.265       .  A
O749        V752   1.903       .  S
O749        C754   1.265       .  A
O750        V752   1.910       .  S
O750        C753   1.265       .  A
V751        V752   2.089       .  T
O757        V765   1.897       .  S
O757        C767   1.263       .  A
O758        V765   1.896       .  S
O758        C768   1.263       .  A
O759        V765   1.896       .  S
O759        C769   1.263       .  A
O760        V765   1.895       .  S
O760        C770   1.263       .  A
O761        V766   1.907       .  S
O761        C770   1.265       .  A
O762        V766   1.905       .  S
O762        C769   1.265       .  A
O763        V766   1.904       .  S
O763        C768   1.264       .  A
O764        V766   1.904       .  S
O764        C767   1.265       .  A
V765        V766   2.089       .  T
O771        V779   1.905   1_545  S
O771        C781   1.264       .  A
O772        V779   1.899       .  S
O772        C782   1.264       .  A
O773        V779   1.899   1_545  S
O773        C783   1.264       .  A
O774        V779   1.905       .  S
O774        C784   1.264       .  A
O775        V780   1.894       .  S
O775        C784   1.263   1_545  A
O776        V780   1.894       .  S
O776        C783   1.262       .  A
O777        V780   1.896       .  S
O777        C782   1.262   1_545  A
O778        V780   1.896       .  S
O778        C781   1.264       .  A
V779        V780   2.090   1_565  T
C785        C786   1.405       .  A
C785        C790   1.404       .  A
C786        C787   1.397       .  A
C786        H795   1.083       .  S
C787        C788   1.401       .  A
C787        H796   1.080       .  S
C788        C794   1.406       .  A
C788        C789   1.414       .  A
C789        C791   1.399       .  A
C789        C790   1.401       .  A
C790        H797   1.084       .  S
C791        C792   1.394       .  A
C791        H798   1.083       .  S
C792        C793   1.407       .  A
C792        H799   1.083       .  S
C793        C794   1.405       .  A
C794        H800   1.084       .  S
C801        C802   1.405       .  A
C801        C806   1.407   1_455  A
C802        C803   1.392       .  A
C802        H811   1.083       .  S
C803        C804   1.397       .  A
C803        H812   1.080       .  S
C804        C810   1.399       .  A
C804        C805   1.413   1_455  A
C805        C807   1.403       .  A
C805        C806   1.406       .  A
C806        H813   1.084       .  S
C807        C808   1.400       .  A
C807        H814   1.082       .  S
C808        C809   1.407       .  A
C808        H815   1.083       .  S
C809        C810   1.403   1_655  A
C810        H816   1.085       .  S
C817        C818   1.406       .  A
C817        C822   1.401       .  A
C818        C819   1.401       .  A
C818        H827   1.083       .  S
C819        C820   1.404       .  A
C819        H828   1.083       .  S
C820        C826   1.406       .  A
C820        C821   1.413       .  A
C821        C823   1.396       .  A
C821        C822   1.397       .  A
C822        H829   1.085       .  S
C823        C824   1.390       .  A
C823        H830   1.082       .  S
C824        C825   1.407       .  A
C824        H831   1.083       .  S
C825        C826   1.409       .  A
C826        H832   1.084       .  S
C833        C834   1.405       .  A
C833        C838   1.403   1_655  A
C834        C835   1.399       .  A
C834        H843   1.083       .  S
C835        C836   1.403       .  A
C835        H844   1.083       .  S
C836        C842   1.405       .  A
C836        C837   1.414   1_655  A
C837        C839   1.398       .  A
C837        C838   1.400       .  A
C838        H845   1.085       .  S
C839        C840   1.393       .  A
C839        H846   1.084       .  S
C840        C841   1.408       .  A
C840        H847   1.083       .  S
C841        C842   1.407   1_455  A
C842        H848   1.084       .  S
C849        C850   1.408       .  A
C849        C854   1.407       .  A
C850        C851   1.396       .  A
C850        H859   1.083       .  S
C851        C852   1.400       .  A
C851        H860   1.083       .  S
C852        C858   1.403       .  A
C852        C853   1.413       .  A
C853        C855   1.401       .  A
C853        C854   1.406       .  A
C854        H861   1.084       .  S
C855        C856   1.399       .  A
C855        H862   1.081       .  S
C856        C857   1.406       .  A
C856        H863   1.083       .  S
C857        C858   1.406       .  A
C858        H864   1.084       .  S
C865        C866   1.407       .  A
C865        C870   1.409   1_455  A
C866        C867   1.398       .  A
C866        H875   1.083       .  S
C867        C868   1.402   1_455  A
C867        H876   1.084       .  S
C868        C874   1.404   1_655  A
C868        C869   1.413       .  A
C869        C871   1.403       .  A
C869        C870   1.404       .  A
C870        H877   1.084       .  S
C871        C872   1.398       .  A
C871        H878   1.083       .  S
C872        C873   1.405       .  A
C872        H879   1.083       .  S
C873        C874   1.406   1_655  A
C874        H880   1.084       .  S
C881        C882   1.408       .  A
C881        C886   1.407       .  A
C882        C883   1.399       .  A
C882        H891   1.083       .  S
C883        C884   1.402       .  A
C883        H892   1.084       .  S
C884        C890   1.406       .  A
C884        C885   1.413       .  A
C885        C887   1.400       .  A
C885        C886   1.404       .  A
C886        H893   1.084       .  S
C887        C888   1.397       .  A
C887        H894   1.082       .  S
C888        C889   1.404       .  A
C888        H895   1.083       .  S
C889        C890   1.408       .  A
C890        H896   1.084       .  S
C897        C898   1.409   1_455  A
C897        C902   1.407       .  A
C898        C899   1.396       .  A
C898        H907   1.083       .  S
C899        C900   1.399       .  A
C899        H908   1.083       .  S
C900        C906   1.404       .  A
C900        C901   1.414   1_655  A
C901        C903   1.401       .  A
C901        C902   1.407       .  A
C902        H909   1.084       .  S
C903        C904   1.398       .  A
C903        H910   1.081       .  S
C904        C905   1.406       .  A
C904        H911   1.083       .  S
C905        C906   1.406   1_455  A
C906        H912   1.084       .  S
C913        C914   1.406       .  A
C913        C918   1.404       .  A
C914        C915   1.397       .  A
C914        H923   1.082       .  S
C915        C916   1.400       .  A
C915        H924   1.081       .  S
C916        C922   1.405       .  A
C916        C917   1.415       .  A
C917        C919   1.399       .  A
C917        C918   1.402       .  A
C918        H925   1.084       .  S
C919        C920   1.393       .  A
C919        H926   1.084       .  S
C920        C921   1.408       .  A
C920        H927   1.083       .  S
C921        C922   1.404       .  A
C922        H928   1.084       .  S
C929        C930   1.407       .  A
C929        C934   1.404       .  A
C930        C931   1.400       .  A
C930        H939   1.083       .  S
C931        C932   1.403       .  A
C931        H940   1.083       .  S
C932        C938   1.407       .  A
C932        C933   1.414       .  A
C933        C935   1.399       .  A
C933        C934   1.400       .  A
C934        H941   1.085       .  S
C935        C936   1.392       .  A
C935        H942   1.082       .  S
C936        C937   1.404       .  A
C936        H943   1.083       .  S
C937        C938   1.406       .  A
C938        H944   1.084       .  S
C945        C946   1.404       .  A
C945        C950   1.407       .  A
C946        C947   1.394       .  A
C946        H955   1.083       .  S
C947        C948   1.399       .  A
C947        H956   1.081       .  S
C948        C954   1.402       .  A
C948        C949   1.413       .  A
C949        C951   1.403       .  A
C949        C950   1.407       .  A
C950        H957   1.084       .  S
C951        C952   1.400       .  A
C951        H958   1.083       .  S
C952        C953   1.406       .  A
C952        H959   1.083       .  S
C953        C954   1.405       .  A
C954        H960   1.084       .  S
C961        C962   1.406       .  A
C961        C966   1.406       .  A
C962        C963   1.399       .  A
C962        H971   1.083       .  S
C963        C964   1.402       .  A
C963        H972   1.081       .  S
C964        C970   1.406       .  A
C964        C965   1.414       .  A
C965        C967   1.401       .  A
C965        C966   1.403       .  A
C966        H973   1.084       .  S
C967        C968   1.396       .  A
C967        H974   1.084       .  S
C968        C969   1.406       .  A
C968        H975   1.083       .  S
C969        C970   1.406       .  A
C970        H976   1.084       .  S
C977        C978   1.407       .  A
C977        C982   1.409       .  A
C978        C979   1.395       .  A
C978        H987   1.083       .  S
C979        C980   1.400       .  A
C979        H988   1.083       .  S
C980        C986   1.402       .  A
C980        C981   1.413       .  A
C981        C983   1.403       .  A
C981        C982   1.407       .  A
C982        H989   1.084       .  S
C983        C984   1.400       .  A
C983        H990   1.082       .  S
C984        C985   1.406       .  A
C984        H991   1.083       .  S
C985        C986   1.405       .  A
C986        H992   1.084       .  S
C993        C994   1.404       .  A
C993        C998   1.406       .  A
C994        C995   1.397       .  A
C994       H1003   1.083       .  S
C995        C996   1.402       .  A
C995       H1004   1.083       .  S
C996       C1002   1.402       .  A
C996        C997   1.413       .  A
C997        C999   1.402       .  A
C997        C998   1.404       .  A
C998       H1005   1.084       .  S
C999       C1000   1.398       .  A
C999       H1006   1.084       .  S
C1000      C1001   1.407       .  A
C1000      H1007   1.083       .  S
C1001      C1002   1.408       .  A
C1002      H1008   1.084       .  S
C1009      C1010   1.408       .  A
C1009      C1014   1.408       .  A
C1010      C1011   1.400       .  A
C1010      H1019   1.083       .  S
C1011      C1012   1.403       .  A
C1011      H1020   1.084       .  S
C1012      C1018   1.407       .  A
C1012      C1013   1.413       .  A
C1013      C1015   1.401       .  A
C1013      C1014   1.404       .  A
C1014      H1021   1.084       .  S
C1015      C1016   1.397       .  A
C1015      H1022   1.082       .  S
C1016      C1017   1.404       .  A
C1016      H1023   1.083       .  S
C1017      C1018   1.408       .  A
C1018      H1024   1.084       .  S
C1025      C1026   1.409       .  A
C1025      C1030   1.408       .  A
C1026      C1027   1.397       .  A
C1026      H1035   1.083       .  S
C1027      C1028   1.400       .  A
C1027      H1036   1.083       .  S
C1028      C1034   1.406       .  A
C1028      C1029   1.414       .  A
C1029      C1031   1.402       .  A
C1029      C1030   1.408       .  A
C1030      H1037   1.084       .  S
C1031      C1032   1.399       .  A
C1031      H1038   1.083       .  S
C1032      C1033   1.406       .  A
C1032      H1039   1.083       .  S
C1033      C1034   1.406       .  A
C1034      H1040   1.084       .  S
