geometry optimzed in LAMMPS
_audit_creation_date              2020-11-30 
_audit_creation_method            'lammps2cif' 
_symmetry_space_group_name_H-M    'P1' 
_symmetry_Int_Tables_number       1 
_symmetry_cell_setting            triclinic 
loop_ 
_symmetry_equiv_pos_as_xyz 
  x,y,z 
_cell_length_a                    33.12959139880214 
_cell_length_b                    33.15291692847031 
_cell_length_c                    33.34742752529332 
_cell_angle_alpha                 90.21434672733729 
_cell_angle_beta                  89.65598454804869 
_cell_angle_gamma                 120.40374869438656 
loop_ 
_atom_site_label 
_atom_site_type_symbol 
_atom_site_fract_x 
_atom_site_fract_y 
_atom_site_fract_z 
_atom_site_charge 
C1          C  0.50686229  0.42267417  0.10488753     0.03500
C2          C  0.48941996  0.43921336  0.07479125    -0.12650
C3          C  0.51834900  0.48270475  0.05567550     0.01000
C4          C  0.56530506  0.50950894  0.06868983    -0.11180
C5          C  0.58226136  0.49424410  0.10006328     0.03490
C6          C  0.55324255  0.45058846  0.11750171    -0.10600
H7          H  0.45330858  0.41717230  0.06641754     0.09080
H8          H  0.58983079  0.54214697  0.05451417     0.06610
H9          H  0.56668884  0.43848642  0.14127816     0.06460
C10         C  0.44226599  0.48410323  0.96967545     0.03500
C11         C  0.46898511  0.53028169  0.95637929    -0.12650
C12         C  0.51044484  0.56186887  0.97590610     0.01000
C13         C  0.52491636  0.54669311  0.00926145    -0.11180
C14         C  0.50025561  0.49949515  0.02194147     0.03490
C15         C  0.45849744  0.46860837  0.00146121    -0.10600
H16         H  0.45731784  0.54155298  0.93073864     0.09080
H17         H  0.55563332  0.57254913  0.02493247     0.06610
H18         H  0.43812320  0.43204049  0.00912308     0.06460
O19         O  0.47755487  0.44137390  0.58695419    -0.74060
O20         O  0.52210126  0.56141969  0.53887613    -0.74090
O21         O  0.43960529  0.47890410  0.53918621    -0.74140
O22         O  0.56005114  0.52351324  0.58657564    -0.74190
O23         O  0.58239979  0.50018175  0.53246825    -0.74130
O24         O  0.46275697  0.45685574  0.48466290    -0.74100
O25         O  0.54534475  0.53887626  0.48491768    -0.74080
O26         O  0.49979288  0.41837515  0.53266318    -0.74140
Ni27       Ni  0.49902105  0.50217644  0.56479406     1.25410
Ni28       Ni  0.52337737  0.47775590  0.50677065     1.25360
C29         C  0.48102695  0.40978470  0.56769606     0.88120
C30         C  0.54159937  0.57036145  0.50420898     0.88050
C31         C  0.43116352  0.45999050  0.50433460     0.88080
C32         C  0.59127492  0.51936509  0.56716051     0.88250
O33         O  0.13097878  0.78966461  0.81659029    -0.74060
O34         O  0.24940478  0.83120784  0.86685479    -0.74090
O35         O  0.16590541  0.75014213  0.86516701    -0.74140
O36         O  0.21376146  0.87078849  0.81735611    -0.74190
O37         O  0.19053973  0.89453058  0.87088598    -0.74130
O38         O  0.14338651  0.77398753  0.91901110    -0.74100
O39         O  0.22613313  0.85565486  0.91992259    -0.74080
O40         O  0.10761967  0.81281484  0.87026917    -0.74140
Ni41       Ni  0.19101809  0.80971784  0.83960472     1.25410
Ni42       Ni  0.16611318  0.83512133  0.89691379     1.25360
C43         C  0.09945663  0.79370075  0.83554687     0.88120
C44         C  0.25703408  0.85010744  0.90168074     0.88050
C45         C  0.14639645  0.74206436  0.89977073     0.88080
C46         C  0.20942933  0.90223475  0.83601524     0.88250
C47         C  0.58195343  0.05127278  0.10084183     0.03500
C48         C  0.56444560  0.01927848  0.06896164    -0.12650
C49         C  0.52264656  0.00897802  0.04916845     0.01000
C50         C  0.49877634  0.03174121  0.06283127    -0.11180
C51         C  0.51379748  0.06073727  0.09693344     0.03490
C52         C  0.55522347  0.06977786  0.11587241    -0.10600
H53         H  0.58362407  0.00215235  0.06060801     0.09080
H54         H  0.46819140  0.02719170  0.04740939     0.06610
H55         H  0.56702061  0.09146649  0.14246192     0.06460
C56         C  0.43742856  0.91699681  0.97479795     0.03500
C57         C  0.45569276  0.95149306  0.00471118    -0.12650
C58         C  0.50330792  0.97344052  0.01574139     0.01000
C59         C  0.53202126  0.96005491  0.99501553    -0.11180
C60         C  0.51318903  0.92248450  0.96768214     0.03490
C61         C  0.46535278  0.90043192  0.95868592    -0.10600
H62         H  0.43192934  0.96039307  0.01904997     0.09080
H63         H  0.56935557  0.97864621  0.99980513     0.06610
H64         H  0.44969546  0.87093064  0.93838471     0.06460
C65         C  0.94354105  0.41867427  0.09745655     0.03500
C66         C  0.92754654  0.44733625  0.11301550    -0.12650
C67         C  0.94785270  0.49401925  0.10111661     0.01000
C68         C  0.98481313  0.51203000  0.07326493    -0.11180
C69         C  0.99870412  0.48284351  0.05406087     0.03490
C70         C  0.97734542  0.43571027  0.06675839    -0.10600
H71         H  0.89947559  0.43324837  0.13500137     0.09080
H72         H  0.00244549  0.54904895  0.06706196     0.06610
H73         H  0.98669582  0.41182063  0.05336576     0.06460
C74         C  0.07229594  0.55648149  0.96521400     0.03500
C75         C  0.04225547  0.54106192  0.99839898    -0.12650
C76         C  0.03359900  0.50097944  0.02003244     0.01000
C77         C  0.05763694  0.47784574  0.00789690    -0.11180
C78         C  0.08488179  0.49046244  0.97240127     0.03490
C79         C  0.09079444  0.52948270  0.95083512    -0.10600
H80         H  0.02562759  0.56080191  0.00642839     0.09080
H81         H  0.05537544  0.44989620  0.02604568     0.06610
H82         H  0.11030643  0.53972772  0.92303293     0.06460
O83         O  0.81775693  0.11206411  0.25552439    -0.74060
O84         O  0.85355930  0.22740265  0.20192278    -0.74090
O85         O  0.77378506  0.14268518  0.20653336    -0.74140
O86         O  0.89709990  0.19668540  0.25061860    -0.74190
O87         O  0.91898204  0.17031519  0.19797480    -0.74130
O88         O  0.79695945  0.12010085  0.15238378    -0.74100
O89         O  0.87742409  0.20371790  0.14887580    -0.74080
O90         O  0.83806040  0.08674895  0.20119963    -0.74140
Ni91       Ni  0.83468437  0.17057994  0.23051994     1.25410
Ni92       Ni  0.85872878  0.14440430  0.17320459     1.25360
C93         C  0.82159906  0.08028600  0.23695225     0.88120
C94         C  0.87190640  0.23484325  0.16682537     0.88050
C95         C  0.76499038  0.12246996  0.17221181     0.88080
C96         C  0.92807528  0.19182925  0.23164840     0.88250
C97         C  0.17566475  0.74772484  0.42964662     0.03500
C98         C  0.21867831  0.77741188  0.44757925    -0.12650
C99         C  0.24573770  0.82379508  0.43501335     0.01000
C100        C  0.22880291  0.84095298  0.40502493    -0.11180
C101        C  0.18588258  0.81127957  0.38545194     0.03490
C102        C  0.16015331  0.76396964  0.39792897    -0.10600
H103        H  0.23093933  0.76448037  0.47165304     0.09080
H104        H  0.24972569  0.87755380  0.39749367     0.06610
H105        H  0.12773134  0.73906781  0.38375340     0.06460
C106        C  0.10374039  0.82048416  0.31004018     0.03500
C107        C  0.12037036  0.80471443  0.34131945    -0.12650
C108        C  0.16786064  0.82958394  0.35289226     0.01000
C109        C  0.19785187  0.87200462  0.33272236    -0.11180
C110        C  0.18071763  0.89054133  0.30397169     0.03490
C111        C  0.13331065  0.86457690  0.29328262    -0.10600
H112        H  0.09541792  0.77271898  0.35611456     0.09080
H113        H  0.23494675  0.89102097  0.33861723     0.06610
H114        H  0.11937217  0.87817563  0.27130795     0.06460
C115        C  0.24793206  0.38718685  0.43379150     0.03500
C116        C  0.23142551  0.35430015  0.40246056    -0.12650
C117        C  0.18462421  0.33344990  0.38891274     0.01000
C118        C  0.15519612  0.34728935  0.40806742    -0.11180
C119        C  0.17213544  0.38171638  0.43813361     0.03490
C120        C  0.21846038  0.40138791  0.45073175    -0.10600
H121        H  0.25576295  0.34553445  0.38917475     0.09080
H122        H  0.11868312  0.33152197  0.40054806     0.06610
H123        H  0.23187639  0.42818753  0.47374683     0.06460
C124        C  0.10954876  0.25619855  0.30191157     0.03500
C125        C  0.12531618  0.28735103  0.33427965    -0.12650
C126        C  0.16711456  0.29872422  0.35455545     0.01000
C127        C  0.19217175  0.27694197  0.34104212    -0.11180
C128        C  0.17891980  0.24870339  0.30623871     0.03490
C129        C  0.13777895  0.23957601  0.28655830    -0.10600
H130        H  0.10410566  0.30208431  0.34302830     0.09080
H131        H  0.22211885  0.28138123  0.35740343     0.06610
H132        H  0.12730878  0.21981565  0.25892330     0.06460
O133        O  0.36327746  0.12255251  0.15256807    -0.74060
O134        O  0.28813561  0.16593039  0.20304181    -0.74090
O135        O  0.36280524  0.20463994  0.15295803    -0.74140
O136        O  0.28883646  0.08467125  0.20231521    -0.74190
O137        O  0.33602576  0.10888681  0.25518540    -0.74130
O138        O  0.41137543  0.22873781  0.20520283    -0.74100
O139        O  0.33650896  0.19140624  0.25532560    -0.74080
O140        O  0.41115131  0.14687734  0.20524225    -0.74140
Ni141      Ni  0.32414421  0.14366279  0.17582640     1.25410
Ni142      Ni  0.37546506  0.16983245  0.23214571     1.25360
C143        C  0.39917059  0.12696302  0.17088809     0.88120
C144        C  0.30001864  0.18601784  0.23734780     0.88050
C145        C  0.39901326  0.23644189  0.17109301     0.88080
C146        C  0.30017032  0.07670047  0.23680800     0.88250
O147        O  0.02417039  0.45079084  0.48451798    -0.74060
O148        O  0.95050215  0.49859348  0.53036196    -0.74090
O149        O  0.02620145  0.53337405  0.48128712    -0.74140
O150        O  0.94820069  0.41607009  0.53356760    -0.74190
O151        O  0.99621089  0.44031131  0.58617603    -0.74130
O152        O  0.07162317  0.55902017  0.53552431    -0.74100
O153        O  0.99601733  0.52195190  0.58436782    -0.74080
O154        O  0.07171899  0.47697195  0.53727343    -0.74140
Ni155      Ni  0.98562575  0.47379533  0.50551996     1.25410
Ni156      Ni  0.03562339  0.50048323  0.56270822     1.25360
C157        C  0.06018874  0.45607583  0.50325879     0.88120
C158        C  0.96094865  0.51810807  0.56494885     0.88050
C159        C  0.06114262  0.56575068  0.50024239     0.88080
C160        C  0.95951593  0.40890688  0.56835692     0.88250
C161        C  0.77304390  0.58505228  0.63963699     0.03500
C162        C  0.79154720  0.62134709  0.66798197    -0.12650
C163        C  0.83732531  0.63979411  0.68337082     0.01000
C164        C  0.86513470  0.62268415  0.66642762    -0.11180
C165        C  0.84688567  0.58597519  0.63844224     0.03490
C166        C  0.80059837  0.56694130  0.62577238    -0.10600
H167        H  0.76976578  0.63544303  0.67641809     0.09080
H168        H  0.90167042  0.63812867  0.67340002     0.06610
H169        H  0.78622590  0.53852020  0.60424063     0.06460
C170        C  0.91988159  0.73003911  0.76075485     0.03500
C171        C  0.90144681  0.69428007  0.73200184    -0.12650
C172        C  0.85631202  0.67727494  0.71565233     0.01000
C173        C  0.82906230  0.69536274  0.73203592    -0.11180
C174        C  0.84722210  0.73124596  0.76086889     0.03490
C175        C  0.89306666  0.74900552  0.77426529    -0.10600
H176        H  0.92270249  0.67939178  0.72410950     0.09080
H177        H  0.79295338  0.68115000  0.72410286     0.06610
H178        H  0.90763806  0.77694309  0.79625310     0.06460
O179        O  0.69406240  0.78793976  0.81969328    -0.74060
O180        O  0.61796222  0.83167667  0.86791345    -0.74090
O181        O  0.69252698  0.86894141  0.81841640    -0.74140
O182        O  0.61819010  0.75027662  0.86943349    -0.74190
O183        O  0.66593501  0.77527564  0.92220625    -0.74130
O184        O  0.74048207  0.89411864  0.87108068    -0.74100
O185        O  0.66530966  0.85697187  0.92064715    -0.74080
O186        O  0.74115862  0.81314067  0.87266206    -0.74140
Ni187      Ni  0.65400275  0.80868058  0.84197457     1.25410
Ni188      Ni  0.70485112  0.83572080  0.89857097     1.25360
C189        C  0.73047216  0.79361836  0.83813443     0.88120
C190        C  0.62941699  0.85221892  0.90207029     0.88050
C191        C  0.72844938  0.90105607  0.83653066     0.88080
C192        C  0.62968471  0.74333224  0.90420758     0.88250
C193        C  0.77695424  0.14790346  0.63216594     0.03500
C194        C  0.80370588  0.19464759  0.61998224    -0.12650
C195        C  0.84623959  0.22526717  0.63868728     0.01000
C196        C  0.86020793  0.20915987  0.67170453    -0.11180
C197        C  0.83657228  0.16132255  0.68236940     0.03490
C198        C  0.79519441  0.13091025  0.66118628    -0.10600
H199        H  0.79125174  0.20721095  0.59584114     0.09080
H200        H  0.88983178  0.23474917  0.68861391     0.06610
H201        H  0.77632802  0.09377439  0.66666998     0.06460
C202        C  0.84310628  0.08286681  0.76392998     0.03500
C203        C  0.82644081  0.09905877  0.73285668    -0.12650
C204        C  0.85484745  0.14368933  0.71535170     0.01000
C205        C  0.90101062  0.17143730  0.73006157    -0.11180
C206        C  0.91713794  0.15657028  0.76239059     0.03490
C207        C  0.88769117  0.11272130  0.77941030    -0.10600
H208        H  0.79107025  0.07627196  0.72294697     0.09080
H209        H  0.92495404  0.20511789  0.71726564     0.06610
H210        H  0.89975456  0.10177242  0.80500149     0.06460
O211        O  0.80933063  0.67116094  0.25021674    -0.74060
O212        O  0.85428212  0.59456716  0.20533797    -0.74090
O213        O  0.89043943  0.66994017  0.25418786    -0.74140
O214        O  0.77293475  0.59524303  0.20155160    -0.74190
O215        O  0.79970747  0.64207925  0.14807633    -0.74130
O216        O  0.91704243  0.71744603  0.20113161    -0.74100
O217        O  0.88133299  0.64154537  0.15219090    -0.74080
O218        O  0.83584145  0.71759967  0.19678904    -0.74140
Ni219      Ni  0.83075093  0.63103142  0.22970917     1.25410
Ni220      Ni  0.85945287  0.68126683  0.17260645     1.25360
C221        C  0.81508598  0.70710424  0.23088008     0.88120
C222        C  0.87575737  0.60571018  0.17153179     0.88050
C223        C  0.92285047  0.70610890  0.23639570     0.88080
C224        C  0.76696958  0.60658680  0.16637387     0.88250
C225        C  0.61074437  0.75261157  0.42963212     0.03500
C226        C  0.64824041  0.77290737  0.40222947    -0.12650
C227        C  0.66130604  0.81586015  0.38301784     0.01000
C228        C  0.63867887  0.84030447  0.39533855    -0.11180
C229        C  0.60466447  0.82265072  0.42571913     0.03490
C230        C  0.58906187  0.77786944  0.44091216    -0.10600
H231        H  0.66758189  0.75522385  0.39681825     0.09080
H232        H  0.64765836  0.87364444  0.38248687     0.06610
H233        H  0.56067953  0.76332603  0.46258269     0.06460
C234        C  0.75590394  0.89973208  0.30939889     0.03500
C235        C  0.77057717  0.87060166  0.29259561    -0.12650
C236        C  0.74903554  0.82335499  0.30362609     0.01000
C237        C  0.71151525  0.80558372  0.33099597    -0.11180
C238        C  0.69895868  0.83518816  0.35123372     0.03490
C239        C  0.72207811  0.88282470  0.33990388    -0.10600
H240        H  0.79826396  0.88482404  0.27028593     0.09080
H241        H  0.69179946  0.76825368  0.33570714     0.06610
H242        H  0.71373092  0.90726602  0.35358635     0.06460
O243        O  0.47876703  0.00087088  0.58685004    -0.74060
O244        O  0.52030273  0.92613623  0.53303730    -0.74090
O245        O  0.56062979  0.00113984  0.58213174    -0.74140
O246        O  0.43837154  0.92555497  0.53738645    -0.74190
O247        O  0.45950284  0.97306529  0.48435146    -0.74130
O248        O  0.58180509  0.04797856  0.52891269    -0.74100
O249        O  0.54098376  0.97283401  0.47963471    -0.74080
O250        O  0.49978532  0.04783604  0.53356431    -0.74140
Ni251      Ni  0.49873092  0.96174679  0.56175503     1.25410
Ni252      Ni  0.52131320  0.01217480  0.50477015     1.25360
C253        C  0.48215458  0.03653105  0.56888349     0.88120
C254        C  0.53752794  0.93711730  0.49756997     0.88050
C255        C  0.59172387  0.03668106  0.56259598     0.88080
C256        C  0.42900178  0.93699124  0.50354505     0.88250
C257        C  0.41063088  0.22239921  0.63314018     0.03500
C258        C  0.43101161  0.19568565  0.62249404    -0.12650
C259        C  0.41436780  0.15116514  0.63863346     0.01000
C260        C  0.38093335  0.13517393  0.66936332    -0.11180
C261        C  0.36008569  0.16129928  0.68199612     0.03490
C262        C  0.37423677  0.20413488  0.66195583    -0.10600
H263        H  0.45997067  0.20908449  0.60152895     0.09080
H264        H  0.37175161  0.10198704  0.68253656     0.06610
H265        H  0.35713055  0.22381783  0.66812598     0.06460
C266        C  0.27558442  0.08381837  0.76505097     0.03500
C267        C  0.30480048  0.09826805  0.73123775    -0.12650
C268        C  0.32459251  0.14431217  0.71595816     0.01000
C269        C  0.31123735  0.17427865  0.73479291    -0.11180
C270        C  0.27965442  0.15896599  0.76729354     0.03490
C271        C  0.26247651  0.11384145  0.78248468    -0.10600
H272        H  0.31184991  0.07281724  0.71788539     0.09080
H273        H  0.32561161  0.21008596  0.72541175     0.06610
H274        H  0.23837579  0.10173167  0.80768420     0.06460
O275        O  0.14470609  0.33457265  0.92149953    -0.74060
O276        O  0.18809014  0.25968078  0.87034625    -0.74090
O277        O  0.22622205  0.33424631  0.92006319    -0.74140
O278        O  0.10613315  0.25981056  0.87153772    -0.74190
O279        O  0.12964222  0.30784785  0.81896262    -0.74130
O280        O  0.25058245  0.38110026  0.86665974    -0.74100
O281        O  0.21068072  0.30646681  0.81692833    -0.74080
O282        O  0.16978824  0.38302193  0.86921955    -0.74140
Ni283      Ni  0.16537723  0.29533772  0.89768868     1.25410
Ni284      Ni  0.19093227  0.34631728  0.84105558     1.25360
C285        C  0.15052183  0.37148699  0.90400667     0.88120
C286        C  0.20682184  0.27084453  0.83538254     0.88050
C287        C  0.25828317  0.36978556  0.90126789     0.88080
C288        C  0.09795046  0.27160177  0.83733529     0.88250
C289        C  0.26335482  0.18964409  0.78483280     0.00210
C290        C  0.24297378  0.20823338  0.75959487    -0.11660
C291        C  0.22418188  0.23465162  0.77520747     0.02450
C292        C  0.22562885  0.24290944  0.81693393     0.00130
C293        C  0.24646821  0.22475521  0.84201841    -0.11600
C294        C  0.26555429  0.19874939  0.82642274     0.02330
H295        H  0.24064683  0.20105075  0.72766994     0.15310
H296        H  0.24862985  0.23163167  0.87399923     0.15310
C297        C  0.28855271  0.18326233  0.85374435     0.36970
C298        C  0.20164537  0.25084175  0.74801427     0.36870
N299        N  0.30696292  0.17122940  0.87604375    -0.43380
N300        N  0.18343028  0.26368070  0.72625264    -0.43370
C301        C  0.43034147  0.12026870  0.62151900     0.00210
C302        C  0.45380583  0.10417536  0.64571322    -0.11660
C303        C  0.47021960  0.07591649  0.62956592     0.02450
C304        C  0.46421116  0.06453142  0.58829920     0.00130
C305        C  0.43963862  0.07965958  0.56455746    -0.11600
C306        C  0.42170029  0.10619301  0.58099829     0.02330
H307        H  0.45959305  0.11400417  0.67711491     0.15310
H308        H  0.43313809  0.06943852  0.53324831     0.15310
C309        C  0.39155245  0.11549847  0.55648922     0.36970
C310        C  0.49406975  0.06015053  0.65565601     0.36870
N311        N  0.36650800  0.12183106  0.53699404    -0.43380
N312        N  0.51295667  0.04726774  0.67659443    -0.43370
C313        C  0.55464012  0.90847351  0.47788032     0.00210
C314        C  0.57432735  0.88845012  0.50210884    -0.11660
C315        C  0.59130282  0.86115485  0.48553524     0.02450
C316        C  0.58764574  0.85226846  0.44385267     0.00130
C317        C  0.56847033  0.87266115  0.41940037    -0.11600
C318        C  0.55215072  0.90075977  0.43598704     0.02330
H319        H  0.57743913  0.89499935  0.53416087     0.15310
H320        H  0.56576498  0.86616494  0.38735501     0.15310
C321        C  0.53152578  0.91969691  0.40954005     0.36970
C322        C  0.61423609  0.84444910  0.51180784     0.36870
N323        N  0.51489855  0.93478769  0.38834886    -0.43380
N324        N  0.63275291  0.83120765  0.53280547    -0.43370
C325        C  0.79775248  0.73690933  0.24854801     0.00210
C326        C  0.78590752  0.73191002  0.28949707    -0.11660
C327        C  0.77029737  0.75951730  0.30807019     0.02450
C328        C  0.76479438  0.79240064  0.28532338     0.00130
C329        C  0.77608308  0.79699013  0.24427189    -0.11600
C330        C  0.79310124  0.77045227  0.22596017     0.02330
H331        H  0.78994605  0.70704188  0.30754747     0.15310
H332        H  0.77162638  0.82157104  0.22619003     0.15310
C333        C  0.80543244  0.77890287  0.18397735     0.36970
C334        C  0.76233385  0.75452656  0.35086506     0.36870
N335        N  0.81565058  0.78618204  0.15042504    -0.43380
N336        N  0.75581498  0.75021541  0.38512654    -0.43370
C337        C  0.05144108  0.24280730  0.81846546     0.00210
C338        C  0.04871371  0.23762534  0.77652953    -0.11660
C339        C  0.00565057  0.20936071  0.75750650     0.02450
C340        C  0.96393036  0.18748928  0.78039479     0.00130
C341        C  0.96671496  0.19337707  0.82215601    -0.11600
C342        C  0.00974819  0.21960056  0.84131092     0.02330
H343        H  0.08054697  0.25416617  0.75868228     0.15310
H344        H  0.93495400  0.17669157  0.84010992     0.15310
C345        C  0.00948096  0.22115015  0.88448380     0.36970
C346        C  0.00571221  0.20069559  0.71507365     0.36870
N347        N  0.00813793  0.22078011  0.91913196    -0.43380
N348        N  0.00589340  0.19332306  0.68115070    -0.43370
C349        C  0.72970027  0.11719908  0.61452292     0.00210
C350        C  0.72381942  0.11808802  0.57290655    -0.11660
C351        C  0.67953026  0.09267746  0.55530948     0.02450
C352        C  0.63964896  0.06479181  0.57946116     0.00130
C353        C  0.64567407  0.06325988  0.62100080    -0.11600
C354        C  0.68983958  0.08933739  0.63866333     0.02330
H355        H  0.75406537  0.13892177  0.55393916     0.15310
H356        H  0.61550518  0.04244911  0.64006011     0.15310
C357        C  0.69260649  0.08844446  0.68184080     0.36970
C358        C  0.67657512  0.09557413  0.51233174     0.36870
N359        N  0.69476544  0.08757040  0.71642703    -0.43380
N360        N  0.67435878  0.09815208  0.47789677    -0.43370
C361        C  0.75665978  0.94682865  0.81720550     0.00210
C362        C  0.80381676  0.96278809  0.80906358    -0.11660
C363        C  0.83202677  0.00594840  0.79039763     0.02450
C364        C  0.81350400  0.03516635  0.78124893     0.00130
C365        C  0.76592788  0.01870011  0.78941751    -0.11600
C366        C  0.73735439  0.97462200  0.80664428     0.02330
H367        H  0.81834114  0.94085131  0.81643623     0.15310
H368        H  0.75109060  0.04054236  0.78293897     0.15310
C369        C  0.68871801  0.95923035  0.81435118     0.36970
C370        C  0.87919498  0.01821265  0.77963412     0.36870
N371        N  0.64971228  0.94680053  0.82043374    -0.43380
N372        N  0.91700646  0.02798762  0.77116688    -0.43370
C373        C  0.81734498  0.74788595  0.77973738     0.00210
C374        C  0.81826668  0.75274197  0.82163575    -0.11660
C375        C  0.79147680  0.76859722  0.84120191     0.02450
C376        C  0.76084542  0.77793564  0.81893149     0.00130
C377        C  0.75992858  0.77312420  0.77696188    -0.11600
C378        C  0.78844607  0.75926565  0.75725497     0.02330
H379        H  0.84021742  0.74412978  0.83937673     0.15310
H380        H  0.73782807  0.78154781  0.75925194     0.15310
C381        C  0.78910559  0.75944860  0.71395771     0.36970
C382        C  0.79683027  0.77507376  0.88408912     0.36870
N383        N  0.78975047  0.75975841  0.67925595    -0.43380
N384        N  0.80189428  0.78069846  0.91838112    -0.43370
C385        C  0.93199696  0.53612920  0.58307989     0.00210
C386        C  0.93201894  0.54108196  0.62499006    -0.11660
C387        C  0.90464954  0.55697743  0.64371279     0.02450
C388        C  0.87685894  0.56903301  0.62035177     0.00130
C389        C  0.87722259  0.56458735  0.57847308    -0.11600
C390        C  0.90414062  0.54824983  0.55975440     0.02330
H391        H  0.95277788  0.53156001  0.64341025     0.15310
H392        H  0.85658421  0.57436879  0.56014632     0.15310
C393        C  0.90310809  0.54553256  0.51651057     0.36970
C394        C  0.90444255  0.55879506  0.68698253     0.36870
N395        N  0.90208182  0.54333778  0.48185476    -0.43380
N396        N  0.90442025  0.56039005  0.72165610    -0.43370
C397        C  0.93034010  0.36335936  0.58800121     0.00210
C398        C  0.95182073  0.33890148  0.60149419    -0.11660
C399        C  0.92535580  0.29419355  0.61807627     0.02450
C400        C  0.87629053  0.27386824  0.62312563     0.00130
C401        C  0.85521700  0.29945095  0.61067825    -0.11600
C402        C  0.88161990  0.34342029  0.59261886     0.02330
H403        H  0.98927060  0.35400729  0.59743598     0.15310
H404        H  0.81788762  0.28493136  0.61471058     0.15310
C405        C  0.85813068  0.36776018  0.57963371     0.36970
C406        C  0.94938362  0.26916146  0.62702302     0.36870
N407        N  0.83942223  0.38732668  0.56910637    -0.43380
N408        N  0.96886147  0.24930171  0.63409423    -0.43370
C409        C  0.20941330  0.23089048  0.28969005     0.00210
C410        C  0.25853486  0.25981043  0.29197686    -0.11660
C411        C  0.28878571  0.24562684  0.27619289     0.02450
C412        C  0.27024741  0.20220305  0.25642398     0.00130
C413        C  0.22167120  0.17334010  0.25392436    -0.11600
C414        C  0.19130041  0.18655116  0.27076892     0.02330
H415        H  0.27367826  0.29424908  0.30539752     0.15310
H416        H  0.20723050  0.13957366  0.23923664     0.15310
C417        C  0.14204526  0.15256581  0.26847402     0.36970
C418        C  0.33865321  0.27713751  0.27921885     0.36870
N419        N  0.10296250  0.12435974  0.26526475    -0.43380
N420        N  0.37861918  0.30234770  0.28173465    -0.43370
C421        C  0.14197895  0.39880975  0.45533239     0.00210
C422        C  0.12064947  0.41554245  0.42924535    -0.11660
C423        C  0.09422590  0.43463885  0.44405466     0.02450
C424        C  0.08844593  0.43698117  0.48589596     0.00130
C425        C  0.10966289  0.42005539  0.51195764    -0.11600
C426        C  0.13599998  0.40089919  0.49712604     0.02330
H427        H  0.12568264  0.41478711  0.39713594     0.15310
H428        H  0.10504001  0.42108625  0.54410038     0.15310
C429        C  0.15540954  0.38245219  0.52540281     0.36970
C430        C  0.07546029  0.45360489  0.41565557     0.36870
N431        N  0.17105383  0.36772804  0.54802128    -0.43380
N432        N  0.06058666  0.46897070  0.39290248    -0.43370
C433        C  0.05607532  0.78987422  0.29330555     0.00210
C434        C  0.02630620  0.80805271  0.28746739    -0.11660
C435        C  0.98255854  0.78112485  0.26918012     0.02450
C436        C  0.96781899  0.73505959  0.25679132     0.00130
C437        C  0.99687367  0.71644111  0.26317834    -0.11600
C438        C  0.04095246  0.74350207  0.28072403     0.02330
H439        H  0.03736220  0.84343976  0.29703150     0.15310
H440        H  0.98566275  0.68111326  0.25324089     0.15310
C441        C  0.07093863  0.72367951  0.28320123     0.36970
C442        C  0.95294375  0.80103262  0.26399736     0.36870
N443        N  0.09499988  0.70784353  0.28511036    -0.43380
N444        N  0.92900863  0.81675451  0.25987740    -0.43370
C445        C  0.21241175  0.93760228  0.28591185     0.00210
C446        C  0.24347165  0.97446369  0.31097682    -0.11660
C447        C  0.27306984  0.01961854  0.29591200     0.02450
C448        C  0.27124222  0.02923486  0.25483218     0.00130
C449        C  0.24068026  0.99215669  0.22971477    -0.11600
C450        C  0.21210192  0.94680806  0.24454467     0.02330
H451        H  0.24426026  0.96816835  0.34277682     0.15310
H452        H  0.23951362  0.99831381  0.19793854     0.15310
C453        C  0.18426942  0.91031293  0.21609947     0.36970
C454        C  0.30435493  0.05511512  0.32366604     0.36870
N455        N  0.16183516  0.88121653  0.19324186    -0.43380
N456        N  0.32959917  0.08331318  0.34601170    -0.43370
C457        C  0.29260296  0.85376000  0.45268288     0.00210
C458        C  0.32622300  0.84017412  0.44811730    -0.11660
C459        C  0.37088606  0.86690564  0.46461589     0.02450
C460        C  0.38235828  0.90793695  0.48611135     0.00130
C461        C  0.34892774  0.92165811  0.49079539    -0.11600
C462        C  0.30408887  0.89476603  0.47443627     0.02330
H463        H  0.31754485  0.80866401  0.43143575     0.15310
H464        H  0.35774885  0.95312808  0.50760429     0.15310
C465        C  0.26995221  0.90882235  0.48166598     0.36970
C466        C  0.40448367  0.85182858  0.45884100     0.36870
N467        N  0.24247078  0.91991265  0.48758289    -0.43380
N468        N  0.43126489  0.83957884  0.45416514    -0.43370
C469        C  0.14544200  0.70045331  0.44625402     0.00210
C470        C  0.12147228  0.69613770  0.48222540    -0.11660
C471        C  0.09345859  0.65235504  0.49996987     0.02450
C472        C  0.08927530  0.61204614  0.48160407     0.00130
C473        C  0.11259943  0.61618832  0.44523967    -0.11600
C474        C  0.14094498  0.66016925  0.42762240     0.02330
H475        H  0.12467501  0.72712346  0.49641638     0.15310
H476        H  0.10948580  0.58520742  0.43112798     0.15310
C477        C  0.16627987  0.66345301  0.39127535     0.36970
C478        C  0.06802691  0.64938239  0.53624391     0.36870
N479        N  0.18683627  0.66619732  0.36225032    -0.43380
N480        N  0.04738444  0.64689916  0.56515143    -0.43370
C481        C  0.06266496  0.23985852  0.28447603     0.00210
C482        C  0.05159835  0.27248049  0.26923142    -0.11660
C483        C  0.00754836  0.25770632  0.25244619     0.02450
C484        C  0.97447726  0.20953413  0.24963283     0.00130
C485        C  0.98520307  0.17704535  0.26541207    -0.11600
C486        C  0.02829090  0.19184464  0.28381604     0.02330
H487        H  0.07739467  0.30949236  0.27047198     0.15310
H488        H  0.95916920  0.14006792  0.26455758     0.15310
C489        C  0.03469541  0.15757175  0.30490660     0.36970
C490        C  0.99740467  0.29259432  0.23812849     0.36870
N491        N  0.03897059  0.13005747  0.32266942    -0.43380
N492        N  0.98995932  0.32119939  0.22703762    -0.43370
C493        C  0.80547725  0.03482094  0.25648420     0.00210
C494        C  0.77105717  0.99437578  0.23729157    -0.11660
C495        C  0.75403488  0.95036864  0.25472185     0.02450
C496        C  0.77223947  0.94628323  0.29163012     0.00130
C497        C  0.80660121  0.98669236  0.31100753    -0.11600
C498        C  0.82325687  0.03094148  0.29373404     0.02330
H499        H  0.75690591  0.99729122  0.20890126     0.15310
H500        H  0.82073755  0.98357327  0.33931096     0.15310
C501        C  0.85984772  0.07159260  0.31382760     0.36970
C502        C  0.71710258  0.90986221  0.23468466     0.36870
N503        N  0.88930977  0.10416921  0.32984280    -0.43380
N504        N  0.68731775  0.87736328  0.21885241    -0.43370
C505        C  0.10471899  0.46126747  0.95703034     0.00210
C506        C  0.07944615  0.41263202  0.96373185    -0.11660
C507        C  0.09530875  0.38338595  0.94926446     0.02450
C508        C  0.13507902  0.40159811  0.92403515     0.00130
C509        C  0.16098513  0.45009544  0.91773762    -0.11600
C510        C  0.14752591  0.48005686  0.93531149     0.02330
H511        H  0.04677349  0.39682608  0.98032506     0.15310
H512        H  0.19297354  0.46491653  0.90012526     0.15310
C513        C  0.18001760  0.52971735  0.93231510     0.36970
C514        C  0.07038490  0.33521075  0.96192496     0.36870
N515        N  0.20623684  0.56947446  0.92982220    -0.43380
N516        N  0.05080119  0.29723187  0.97380091    -0.43370
C517        C  0.93060258  0.52390241  0.11866872     0.00210
C518        C  0.92415506  0.52336822  0.16036384    -0.11660
C519        C  0.90612110  0.54923253  0.17826626     0.02450
C520        C  0.89447570  0.57700335  0.15428489     0.00130
C521        C  0.90127978  0.57777645  0.11257544    -0.11600
C522        C  0.91871518  0.55136572  0.09465326     0.02330
H523        H  0.93345404  0.50268723  0.17915220     0.15310
H524        H  0.89202147  0.59838749  0.09366405     0.15310
C525        C  0.92204469  0.55158267  0.05144169     0.36970
C526        C  0.90111542  0.54719515  0.22137489     0.36870
N527        N  0.92476143  0.55183354  0.01681788    -0.43380
N528        N  0.89706864  0.54532252  0.25592296    -0.43370
C529        C  0.92572962  0.37142584  0.11479198     0.00210
C530        C  0.90525982  0.33179579  0.08987680    -0.11660
C531        C  0.88686434  0.28673907  0.10602066     0.02450
C532        C  0.88873485  0.28098355  0.14783218     0.00130
C533        C  0.90863369  0.32063123  0.17258067    -0.11600
C534        C  0.92795903  0.36548817  0.15649015     0.02330
H535        H  0.90294393  0.33602285  0.05789294     0.15310
H536        H  0.91022759  0.31666881  0.20468896     0.15310
C537        C  0.95175161  0.40495985  0.18330313     0.36970
C538        C  0.86417518  0.24702503  0.07939488     0.36870
N539        N  0.97101526  0.43660318  0.20470263    -0.43380
N540        N  0.84569409  0.21513730  0.05813650    -0.43370
C541        C  0.60080553  0.87108339  0.91958845     0.00210
C542        C  0.56757209  0.87327684  0.89507486    -0.11660
C543        C  0.53984024  0.89102763  0.90936613     0.02450
C544        C  0.54349664  0.90554794  0.94983874     0.00130
C545        C  0.57695161  0.90363161  0.97429374    -0.11600
C546        C  0.60605963  0.88768859  0.95951424     0.02330
H547        H  0.56378141  0.86201685  0.86405854     0.15310
H548        H  0.58033142  0.91440712  0.00542333     0.15310
C549        C  0.64098919  0.88933729  0.98626806     0.36970
C550        C  0.50953848  0.89553673  0.88104203     0.36870
N551        N  0.66925437  0.89128415  0.00772799    -0.43380
N552        N  0.48509168  0.89875552  0.85826708    -0.43370
C553        C  0.48466228  0.07922419  0.11426218     0.00210
C554        C  0.43586443  0.04918918  0.11728233    -0.11660
C555        C  0.40729768  0.06408462  0.13528942     0.02450
C556        C  0.42761415  0.10933273  0.15190948     0.00130
C557        C  0.47620043  0.13881022  0.15000136    -0.11600
C558        C  0.50452697  0.12513206  0.12991900     0.02330
H559        H  0.41997668  0.01358734  0.10624863     0.15310
H560        H  0.49200161  0.17313152  0.16356109     0.15310
C561        C  0.55328250  0.15984119  0.12417287     0.36970
C562        C  0.35763926  0.03140300  0.13846758     0.36870
N563        N  0.59228562  0.18779918  0.11950061    -0.43380
N564        N  0.31788110  0.00515745  0.14119331    -0.43370
C565        C  0.62859089  0.06622205  0.11855844     0.00210
C566        C  0.63274567  0.06540187  0.16040423    -0.11660
C567        C  0.67654957  0.08311192  0.17856991     0.02450
C568        C  0.71752118  0.10201382  0.15467998     0.00130
C569        C  0.71322620  0.10171795  0.11277474    -0.11600
C570        C  0.66949499  0.08450868  0.09464816     0.02330
H571        H  0.60156561  0.05107419  0.17903485     0.15310
H572        H  0.74436563  0.11637814  0.09406297     0.15310
C573        C  0.66802703  0.08851328  0.05163240     0.36970
C574        C  0.67811911  0.08036157  0.22167961     0.36870
N575        N  0.66688770  0.09175056  0.01716802    -0.43380
N576        N  0.67928121  0.07809312  0.25623694    -0.43370
C577        C  0.05305653  0.77619214  0.81690496     0.00210
C578        C  0.04993153  0.77566411  0.77488186    -0.11660
C579        C  0.00711865  0.76096872  0.75589952     0.02450
C580        C  0.96616110  0.74566356  0.77910703     0.00130
C581        C  0.96904875  0.74512201  0.82105152    -0.11600
C582        C  0.01181606  0.76005714  0.84006714     0.02330
H583        H  0.08119925  0.78763621  0.75673879     0.15310
H584        H  0.93753817  0.73247752  0.83905518     0.15310
C585        C  0.01178021  0.75656444  0.88323711     0.36970
C586        C  0.00652929  0.76366273  0.71272396     0.36870
N587        N  0.01164725  0.75359010  0.91781253    -0.43380
N588        N  0.00601860  0.76577090  0.67811629    -0.43370
C589        C  0.22643842  0.94819538  0.81705515     0.00210
C590        C  0.25921196  0.98852026  0.83749355    -0.11660
C591        C  0.27636520  0.03284519  0.82051442     0.02450
C592        C  0.25953420  0.03733035  0.78300242     0.00130
C593        C  0.22698386  0.99699163  0.76240071    -0.11600
C594        C  0.21048784  0.95254586  0.77904472     0.02330
H595        H  0.27217695  0.98526572  0.86638739     0.15310
H596        H  0.21410456  0.00031475  0.73349813     0.15310
C597        C  0.17588422  0.91212863  0.75730540     0.36970
C598        C  0.31290839  0.07298015  0.84115796     0.36870
N599        N  0.14807098  0.87987596  0.73977740    -0.43380
N600        N  0.34274727  0.10490682  0.85752688    -0.43370
C601        C  0.12634675  0.69480657  0.91723374     0.00210
C602        C  0.10282213  0.65571739  0.89192959    -0.11660
C603        C  0.08340030  0.61020921  0.90702283     0.02090
C604        C  0.08803378  0.60333423  0.94803551     0.00130
C605        C  0.11096605  0.64237598  0.97341550    -0.11600
C606        C  0.13006260  0.68783062  0.95845293     0.02330
H607        H  0.09909626  0.66073900  0.86033634     0.15310
H608        H  0.11514258  0.63731959  0.00491499     0.15310
C609        C  0.15550484  0.72660277  0.98560523     0.36970
C610        C  0.05774630  0.57118785  0.88020005     0.36870
N611        N  0.17610611  0.75767780  0.00730411    -0.43380
N612        N  0.03699449  0.53986810  0.85877337    -0.43370
C613        C  0.30234947  0.86631370  0.92117484     0.00210
C614        C  0.33415414  0.91443242  0.92317067    -0.11660
C615        C  0.37795338  0.93152381  0.94104599     0.02450
C616        C  0.39000782  0.90010181  0.95823553     0.00130
C617        C  0.35772369  0.85182870  0.95656936    -0.11600
C618        C  0.31413033  0.83478162  0.93812035     0.02330
H619        H  0.32513058  0.93864034  0.90985656     0.15310
H620        H  0.36675823  0.82745120  0.96944731     0.15310
C621        C  0.28183471  0.78495655  0.93725042     0.36970
C622        C  0.41086701  0.98119697  0.93922325     0.36870
N623        N  0.25592646  0.74503125  0.93656282    -0.43380
N624        N  0.43735766  0.02095148  0.93761072    -0.43370
C625        C  0.38417431  0.44106008  0.48655100     0.00210
C626        C  0.38029911  0.44579803  0.44510604    -0.11660
C627        C  0.33642088  0.42854287  0.42712836     0.02450
C628        C  0.29539018  0.40550184  0.45073253     0.00130
C629        C  0.29930480  0.40024786  0.49204152    -0.11600
C630        C  0.34304431  0.41761017  0.51003735     0.02330
H631        H  0.41169756  0.46384456  0.42683242     0.15310
H632        H  0.26788293  0.38201252  0.51028293     0.15310
C633        C  0.34450702  0.40892238  0.55227126     0.36970
C634        C  0.33455114  0.43659428  0.38484891     0.36870
N635        N  0.34567546  0.40176710  0.58606330    -0.43380
N636        N  0.33303733  0.44308592  0.35096317    -0.43370
C637        C  0.42821735  0.27010466  0.61551810     0.00210
C638        C  0.43219077  0.30621358  0.64060225    -0.11660
C639        C  0.44864128  0.35161126  0.62607331     0.02450
C640        C  0.46275521  0.36236896  0.58545848     0.00130
C641        C  0.45899490  0.32645883  0.56049627    -0.11600
C642        C  0.44171820  0.28096042  0.57471618     0.02330
H643        H  0.42294124  0.29921289  0.67208081     0.15310
H644        H  0.46900781  0.33365469  0.52915709     0.15310
C645        C  0.43768281  0.24672491  0.54574111     0.36970
C646        C  0.45081914  0.38610398  0.65393426     0.36870
N647        N  0.43587225  0.22074909  0.52157267    -0.43380
N648        N  0.45224422  0.41351906  0.67636340    -0.43370
C649        C  0.63810188  0.53669601  0.58522052     0.00210
C650        C  0.64244776  0.53978241  0.62719906    -0.11660
C651        C  0.68569443  0.55496212  0.64568129     0.02450
C652        C  0.72599055  0.56810102  0.62199293     0.00130
C653        C  0.72172638  0.56547488  0.58007873    -0.11600
C654        C  0.67854997  0.54993408  0.56159028     0.02330
H655        H  0.61174423  0.52938608  0.64577397     0.15310
H656        H  0.75255586  0.57622378  0.56155769     0.15310
C657        C  0.67747365  0.54941027  0.51829034     0.36970
C658        C  0.68728215  0.55506865  0.68894605     0.36870
N659        N  0.67678889  0.54900289  0.48359242    -0.43380
N660        N  0.68856651  0.55530207  0.72362319    -0.43370
C661        C  0.56016888  0.61757019  0.48595877     0.00210
C662        C  0.57130175  0.62339459  0.44479804    -0.11660
C663        C  0.58811900  0.66672687  0.42584501     0.02450
C664        C  0.59516831  0.70605485  0.44830503     0.00130
C665        C  0.58509603  0.70047789  0.48959710    -0.11600
C666        C  0.56728786  0.65702421  0.50838017     0.02330
H667        H  0.56585725  0.59366211  0.42693292     0.15310
H668        H  0.59099959  0.73036067  0.50747587     0.15310
C669        C  0.55691635  0.65462771  0.55072425     0.36970
C670        C  0.59577558  0.66898563  0.38303171     0.36870
N671        N  0.54841064  0.65295941  0.58460025    -0.43380
N672        N  0.60207109  0.67068696  0.34874811    -0.43370
C673        C  0.30513620  0.39793398  0.91943558     0.00210
C674        C  0.34474837  0.41703341  0.89433360    -0.11660
C675        C  0.38983066  0.44394609  0.91009952     0.02450
C676        C  0.39580900  0.45262324  0.95172187     0.00130
C677        C  0.35629798  0.43310808  0.97687528    -0.11600
C678        C  0.31122717  0.40606930  0.96117992     0.02330
H679        H  0.34051706  0.41044462  0.86231269     0.15310
H680        H  0.36062878  0.44019548  0.00882989     0.15310
C681        C  0.27187666  0.38933306  0.98835417     0.36970
C682        C  0.42939939  0.46122599  0.88313718     0.36870
N683        N  0.24033877  0.37608196  0.01010338    -0.43380
N684        N  0.46113898  0.47504549  0.86155869    -0.43370
C685        C  0.60010255  0.69786152  0.92395048     0.00210
C686        C  0.55248422  0.68215912  0.92995886    -0.11660
C687        C  0.52286496  0.63890791  0.94819486     0.02450
C688        C  0.54070280  0.60989700  0.95972118     0.00130
C689        C  0.58855756  0.62607848  0.95392922    -0.11600
C690        C  0.61824406  0.66967516  0.93648379     0.02330
H691        H  0.53855771  0.70410628  0.92087104     0.15310
H692        H  0.60264452  0.60399652  0.96210349     0.15310
C693        C  0.66655340  0.68334042  0.92987790     0.36970
C694        C  0.47484854  0.62597813  0.95581975     0.36870
N695        N  0.70507360  0.69340168  0.92468449    -0.43380
N696        N  0.43636294  0.61565224  0.96188181    -0.43370
C697        C  0.63041590  0.52441066  0.11531389     0.00210
C698        C  0.66273418  0.50892960  0.11247212    -0.11660
C699        C  0.70795388  0.53585159  0.12813645     0.02450
C700        C  0.72110482  0.57875683  0.14713641     0.00130
C701        C  0.68909182  0.59448884  0.14966949    -0.11600
C702        C  0.64392269  0.56766296  0.13404257     0.02330
H703        H  0.65252943  0.47573853  0.09809879     0.15310
H704        H  0.69909661  0.62729811  0.16470424     0.15310
C705        C  0.61131056  0.58407309  0.13929328     0.36970
C706        C  0.74041295  0.51907167  0.12429959     0.36870
N707        N  0.58503212  0.59702524  0.14358954    -0.43380
N708        N  0.76660657  0.50585627  0.12114006    -0.43370
C709        C  0.42616625  0.28324552  0.15298379     0.00210
C710        C  0.40720604  0.31269133  0.15329633    -0.11660
C711        C  0.43266608  0.35829959  0.13794611     0.02450
C712        C  0.47782293  0.37480750  0.12158711     0.00130
C713        C  0.49628390  0.34491653  0.12092763    -0.11600
C714        C  0.47099839  0.29959780  0.13642759     0.02330
H715        H  0.37281532  0.30031834  0.16631608     0.15310
H716        H  0.53059517  0.35696058  0.10785944     0.15310
C717        C  0.49159720  0.27045730  0.13368189     0.36970
C718        C  0.41248240  0.38791679  0.14082817     0.36870
N719        N  0.50935870  0.24827045  0.13045077    -0.43380
N720        N  0.39628132  0.41164911  0.14307607    -0.43370
loop_ 
_geom_bond_atom_site_label_1 
_geom_bond_atom_site_label_2 
_geom_bond_distance 
_geom_bond_site_symmetry_2 
_ccdc_geom_bond_type 
C1            C2   1.405       .  A
C1            C6   1.400       .  A
C1          C712   1.486       .  S
C2            C3   1.416       .  A
C2            H7   1.077       .  S
C3            C4   1.416       .  A
C3           C14   1.512       .  S
C4            C5   1.402       .  A
C4            H8   1.079       .  S
C5            C6   1.396       .  A
C5          C697   1.482       .  S
C6            H9   1.084       .  S
C10          C11   1.397       .  A
C10          C15   1.403   1_556  A
C10         C676   1.482       .  S
C11          C12   1.399       .  A
C11          H16   1.083       .  S
C12          C13   1.405   1_556  A
C12         C688   1.489       .  S
C13          C14   1.415       .  A
C13          H17   1.079       .  S
C14          C15   1.415       .  A
C15          H18   1.078       .  S
O19         Ni27   1.915       .  S
O19          C29   1.280       .  A
O20         Ni27   1.917       .  S
O20          C30   1.281       .  A
O21         Ni27   1.918       .  S
O21          C31   1.282       .  A
O22         Ni27   1.919       .  S
O22          C32   1.282       .  A
O23         Ni28   1.912       .  S
O23          C32   1.280       .  A
O24         Ni28   1.914       .  S
O24          C31   1.280       .  A
O25         Ni28   1.918       .  S
O25          C30   1.282       .  A
O26         Ni28   1.918       .  S
O26          C29   1.283       .  A
Ni27        Ni28   2.384       .  S
C29         C640   1.493       .  S
C30         C661   1.492       .  S
C31         C625   1.479       .  S
C32         C649   1.485       .  S
O33         Ni41   1.914       .  S
O33          C43   1.281       .  A
O34         Ni41   1.923       .  S
O34          C44   1.282       .  A
O35         Ni41   1.913       .  S
O35          C45   1.280       .  A
O36         Ni41   1.918       .  S
O36          C46   1.281       .  A
O37         Ni42   1.918       .  S
O37          C46   1.281       .  A
O38         Ni42   1.918       .  S
O38          C45   1.282       .  A
O39         Ni42   1.911       .  S
O39          C44   1.278       .  A
O40         Ni42   1.912       .  S
O40          C43   1.281       .  A
Ni41        Ni42   2.391       .  S
C43         C577   1.481       .  S
C44         C613   1.469       .  S
C45         C601   1.478       .  S
C46         C589   1.474       .  S
C47          C48   1.403       .  A
C47          C52   1.398       .  A
C47         C565   1.489       .  S
C48          C49   1.414       .  A
C48          H53   1.080       .  S
C49          C50   1.414       .  A
C49          C58   1.509   1_545  S
C50          C51   1.407       .  A
C50          H54   1.079       .  S
C51          C52   1.402       .  A
C51         C553   1.494       .  S
C52          H55   1.082       .  S
C56          C57   1.403   1_556  A
C56          C61   1.397       .  A
C56         C616   1.485       .  S
C57          C58   1.413       .  A
C57          H62   1.079       .  S
C58          C59   1.413   1_554  A
C59          C60   1.408       .  A
C59          H63   1.079       .  S
C60          C61   1.403       .  A
C60         C544   1.496       .  S
C61          H64   1.082       .  S
C65          C66   1.398       .  A
C65          C70   1.404       .  A
C65         C529   1.484       .  S
C66          C67   1.397       .  A
C66          H71   1.084       .  S
C67          C68   1.403       .  A
C67         C517   1.488       .  S
C68          C69   1.414       .  A
C68          H72   1.079   1_655  S
C69          C70   1.416       .  A
C69          C76   1.507   1_655  S
C70          H73   1.080       .  S
C74          C75   1.397       .  A
C74          C79   1.398       .  A
C74         C604   1.482       .  S
C75          C76   1.410   1_556  A
C75          H80   1.079   1_556  S
C76          C77   1.414       .  A
C77          C78   1.414   1_554  A
C77          H81   1.079       .  S
C78          C79   1.406       .  A
C78         C505   1.506       .  S
C79          H82   1.080       .  S
O83         Ni91   1.918       .  S
O83          C93   1.280       .  A
O84         Ni91   1.914       .  S
O84          C94   1.281       .  A
O85         Ni91   1.921       .  S
O85          C95   1.282       .  A
O86         Ni91   1.917       .  S
O86          C96   1.280       .  A
O87         Ni92   1.919       .  S
O87          C96   1.281       .  A
O88         Ni92   1.914       .  S
O88          C95   1.281       .  A
O89         Ni92   1.919       .  S
O89          C94   1.281       .  A
O90         Ni92   1.917       .  S
O90          C93   1.281       .  A
Ni91        Ni92   2.390       .  S
C93         C493   1.473       .  S
C94         C532   1.480       .  S
C95         C568   1.484       .  S
C96         C484   1.471       .  S
C97          C98   1.394       .  A
C97         C102   1.401       .  A
C97         C469   1.475       .  S
C98          C99   1.396       .  A
C98         H103   1.084       .  S
C99         C100   1.404       .  A
C99         C457   1.480       .  S
C100        C101   1.416       .  A
C100        H104   1.079       .  S
C101        C102   1.417       .  A
C101        C108   1.511       .  S
C102        H105   1.079       .  S
C106        C107   1.403       .  A
C106        C111   1.400       .  A
C106        C433   1.490       .  S
C107        C108   1.413       .  A
C107        H112   1.079       .  S
C108        C109   1.415       .  A
C109        C110   1.408       .  A
C109        H113   1.079       .  S
C110        C111   1.404       .  A
C110        C445   1.497       .  S
C111        H114   1.082       .  S
C115        C116   1.405       .  A
C115        C120   1.397       .  A
C115        C628   1.484       .  S
C116        C117   1.417       .  A
C116        H121   1.078       .  S
C117        C118   1.418       .  A
C117        C126   1.515       .  S
C118        C119   1.405       .  A
C118        H122   1.078       .  S
C119        C120   1.396       .  A
C119        C421   1.487       .  S
C120        H123   1.084       .  S
C124        C125   1.399       .  A
C124        C129   1.398       .  A
C124        C481   1.484       .  S
C125        C126   1.413       .  A
C125        H130   1.078       .  S
C126        C127   1.419       .  A
C127        C128   1.414       .  A
C127        H131   1.078       .  S
C128        C129   1.404       .  A
C128        C409   1.506       .  S
C129        H132   1.081       .  S
O133       Ni141   1.917       .  S
O133        C143   1.281       .  A
O134       Ni141   1.914       .  S
O134        C144   1.281       .  A
O135       Ni141   1.920       .  S
O135        C145   1.281       .  A
O136       Ni141   1.913       .  S
O136        C146   1.281       .  A
O137       Ni142   1.925       .  S
O137        C146   1.283       .  A
O138       Ni142   1.920       .  S
O138        C145   1.281       .  A
O139       Ni142   1.922       .  S
O139        C144   1.281       .  A
O140       Ni142   1.917       .  S
O140        C143   1.281       .  A
Ni141      Ni142   2.388       .  S
C143        C556   1.476       .  S
C144        C412   1.480       .  S
C145        C709   1.473       .  S
C146        C448   1.493       .  S
O147       Ni155   1.917   1_455  S
O147        C157   1.281       .  A
O148       Ni155   1.915       .  S
O148        C158   1.281       .  A
O149       Ni155   1.916   1_455  S
O149        C159   1.280       .  A
O150       Ni155   1.916       .  S
O150        C160   1.281       .  A
O151       Ni156   1.913   1_655  S
O151        C160   1.280       .  A
O152       Ni156   1.915       .  S
O152        C159   1.281       .  A
O153       Ni156   1.918   1_655  S
O153        C158   1.282       .  A
O154       Ni156   1.919       .  S
O154        C157   1.282       .  A
Ni155      Ni156   2.389   1_655  S
C157        C424   1.484       .  S
C158        C385   1.488       .  S
C159        C472   1.471       .  S
C160        C397   1.472       .  S
C161        C162   1.403       .  A
C161        C166   1.398       .  A
C161        C652   1.488       .  S
C162        C163   1.416       .  A
C162        H167   1.075       .  S
C163        C164   1.418       .  A
C163        C172   1.518       .  S
C164        C165   1.404       .  A
C164        H168   1.075       .  S
C165        C166   1.398       .  A
C165        C388   1.490       .  S
C166        H169   1.084       .  S
C170        C171   1.401       .  A
C170        C175   1.395       .  A
C170        C580   1.483       .  S
C171        C172   1.416       .  A
C171        H176   1.076       .  S
C172        C173   1.419       .  A
C173        C174   1.406       .  A
C173        H177   1.075       .  S
C174        C175   1.398       .  A
C174        C373   1.491       .  S
C175        H178   1.084       .  S
O179       Ni187   1.922       .  S
O179        C189   1.283       .  A
O180       Ni187   1.913       .  S
O180        C190   1.282       .  A
O181       Ni187   1.912       .  S
O181        C191   1.279       .  A
O182       Ni187   1.916       .  S
O182        C192   1.280       .  A
O183       Ni188   1.919       .  S
O183        C192   1.281       .  A
O184       Ni188   1.916       .  S
O184        C191   1.280       .  A
O185       Ni188   1.917       .  S
O185        C190   1.281       .  A
O186       Ni188   1.910       .  S
O186        C189   1.280       .  A
Ni187      Ni188   2.388       .  S
C189        C376   1.487       .  S
C190        C541   1.490       .  S
C191        C361   1.468       .  S
C192        C685   1.473       .  S
C193        C194   1.401       .  A
C193        C198   1.405       .  A
C193        C349   1.492       .  S
C194        C195   1.401       .  A
C194        H199   1.083       .  S
C195        C196   1.404       .  A
C195        C400   1.494       .  S
C196        C197   1.414       .  A
C196        H200   1.078       .  S
C197        C198   1.415       .  A
C197        C204   1.513       .  S
C198        H201   1.078       .  S
C202        C203   1.406       .  A
C202        C207   1.398       .  A
C202        C364   1.492       .  S
C203        C204   1.416       .  A
C203        H208   1.077       .  S
C204        C205   1.417       .  A
C205        C206   1.403       .  A
C205        H209   1.078       .  S
C206        C207   1.397       .  A
C206        C340   1.487       .  S
C207        H210   1.083       .  S
O211       Ni219   1.919       .  S
O211        C221   1.283       .  A
O212       Ni219   1.915       .  S
O212        C222   1.281       .  A
O213       Ni219   1.916       .  S
O213        C223   1.280       .  A
O214       Ni219   1.916       .  S
O214        C224   1.280       .  A
O215       Ni220   1.919       .  S
O215        C224   1.280       .  A
O216       Ni220   1.918       .  S
O216        C223   1.281       .  A
O217       Ni220   1.917       .  S
O217        C222   1.282       .  A
O218       Ni220   1.911       .  S
O218        C221   1.280       .  A
Ni219      Ni220   2.388       .  S
C221        C325   1.490       .  S
C222        C520   1.487       .  S
C223        C436   1.471       .  S
C224        C700   1.470       .  S
C225        C226   1.406       .  A
C225        C230   1.401       .  A
C225        C664   1.495       .  S
C226        C227   1.416       .  A
C226        H231   1.079       .  S
C227        C228   1.413       .  A
C227        C238   1.507       .  S
C228        C229   1.401       .  A
C228        H232   1.078       .  S
C229        C230   1.398       .  A
C229        C316   1.483       .  S
C230        H233   1.084       .  S
C234        C235   1.397       .  A
C234        C239   1.400       .  A
C234        C496   1.478       .  S
C235        C236   1.403       .  A
C235        H240   1.083       .  S
C236        C237   1.405       .  A
C236        C328   1.494       .  S
C237        C238   1.413       .  A
C237        H241   1.079       .  S
C238        C239   1.414       .  A
C239        H242   1.079       .  S
O243       Ni251   1.917   1_545  S
O243        C253   1.280       .  A
O244       Ni251   1.913       .  S
O244        C254   1.281       .  A
O245       Ni251   1.916   1_545  S
O245        C255   1.282       .  A
O246       Ni251   1.919       .  S
O246        C256   1.281       .  A
O247       Ni252   1.913   1_565  S
O247        C256   1.279       .  A
O248       Ni252   1.918       .  S
O248        C255   1.281       .  A
O249       Ni252   1.917   1_565  S
O249        C254   1.281       .  A
O250       Ni252   1.914       .  S
O250        C253   1.282       .  A
Ni251      Ni252   2.389   1_565  S
C253        C304   1.478       .  S
C254        C313   1.480       .  S
C255        C352   1.488       .  S
C256        C460   1.468       .  S
C257        C258   1.402       .  A
C257        C262   1.413       .  A
C257        C637   1.502       .  S
C258        C259   1.397       .  A
C258        H263   1.081       .  S
C259        C260   1.398       .  A
C259        C301   1.482       .  S
C260        C261   1.416       .  A
C260        H264   1.077       .  S
C261        C262   1.419       .  A
C261        C268   1.517       .  S
C262        H265   1.078       .  S
C266        C267   1.400       .  A
C266        C271   1.396       .  A
C266        C592   1.480       .  S
C267        C268   1.417       .  A
C267        H272   1.077       .  S
C268        C269   1.419       .  A
C269        C270   1.407       .  A
C269        H273   1.078       .  S
C270        C271   1.400       .  A
C270        C289   1.489       .  S
C271        H274   1.084       .  S
O275       Ni283   1.918       .  S
O275        C285   1.281       .  A
O276       Ni283   1.918       .  S
O276        C286   1.282       .  A
O277       Ni283   1.914       .  S
O277        C287   1.281       .  A
O278       Ni283   1.917       .  S
O278        C288   1.281       .  A
O279       Ni284   1.919       .  S
O279        C288   1.282       .  A
O280       Ni284   1.916       .  S
O280        C287   1.281       .  A
O281       Ni284   1.919       .  S
O281        C286   1.281       .  A
O282       Ni284   1.924       .  S
O282        C285   1.283       .  A
Ni283      Ni284   2.387       .  S
C285        C508   1.487       .  S
C286        C292   1.483       .  S
C287        C673   1.479       .  S
C288        C337   1.483       .  S
C289        C290   1.406       .  A
C289        C294   1.413       .  A
C290        C291   1.404       .  A
C290        H295   1.085       .  S
C291        C292   1.414       .  A
C291        C298   1.444       .  S
C292        C293   1.404       .  A
C293        C294   1.399       .  A
C293        H296   1.085       .  S
C294        C297   1.443       .  S
C297        N299   1.157       .  T
C298        N300   1.157       .  T
C301        C302   1.404       .  A
C301        C306   1.411       .  A
C302        C303   1.404       .  A
C302        H307   1.084       .  S
C303        C304   1.414       .  A
C303        C310   1.444       .  S
C304        C305   1.402       .  A
C305        C306   1.396       .  A
C305        H308   1.085       .  S
C306        C309   1.444       .  S
C309        N311   1.157       .  T
C310        N312   1.157       .  T
C313        C314   1.403       .  A
C313        C318   1.415       .  A
C314        C315   1.396       .  A
C314        H319   1.085       .  S
C315        C316   1.413       .  A
C315        C322   1.445       .  S
C316        C317   1.404       .  A
C317        C318   1.403       .  A
C317        H320   1.085       .  S
C318        C321   1.444       .  S
C321        N323   1.157       .  T
C322        N324   1.157       .  T
C325        C326   1.406       .  A
C325        C330   1.417       .  A
C326        C327   1.400       .  A
C326        H331   1.085       .  S
C327        C328   1.416       .  A
C327        C334   1.445       .  S
C328        C329   1.405       .  A
C329        C330   1.400       .  A
C329        H332   1.084       .  S
C330        C333   1.444       .  S
C333        N335   1.157       .  T
C334        N336   1.157       .  T
C337        C338   1.406       .  A
C337        C342   1.413       .  A
C338        C339   1.403       .  A
C338        H343   1.085       .  S
C339        C340   1.413   1_455  A
C339        C346   1.443       .  S
C340        C341   1.403       .  A
C341        C342   1.396   1_655  A
C341        H344   1.085       .  S
C342        C345   1.441       .  S
C345        N347   1.156       .  T
C346        N348   1.157       .  T
C349        C350   1.405       .  A
C349        C354   1.415       .  A
C350        C351   1.401       .  A
C350        H355   1.085       .  S
C351        C352   1.416       .  A
C351        C358   1.444       .  S
C352        C353   1.405       .  A
C353        C354   1.401       .  A
C353        H356   1.085       .  S
C354        C357   1.445       .  S
C357        N359   1.157       .  T
C358        N360   1.157       .  T
C361        C362   1.398       .  A
C361        C366   1.408       .  A
C362        C363   1.398   1_565  A
C362        H367   1.085       .  S
C363        C364   1.419       .  A
C363        C370   1.445       .  S
C364        C365   1.408       .  A
C365        C366   1.400   1_545  A
C365        H368   1.084       .  S
C366        C369   1.444       .  S
C369        N371   1.157       .  T
C370        N372   1.157       .  T
C373        C374   1.405       .  A
C373        C378   1.413       .  A
C374        C375   1.397       .  A
C374        H379   1.085       .  S
C375        C376   1.416       .  A
C375        C382   1.444       .  S
C376        C377   1.407       .  A
C377        C378   1.402       .  A
C377        H380   1.085       .  S
C378        C381   1.444       .  S
C381        N383   1.157       .  T
C382        N384   1.157       .  T
C385        C386   1.407       .  A
C385        C390   1.416       .  A
C386        C387   1.401       .  A
C386        H391   1.085       .  S
C387        C388   1.413       .  A
C387        C394   1.444       .  S
C388        C389   1.404       .  A
C389        C390   1.399       .  A
C389        H392   1.085       .  S
C390        C393   1.444       .  S
C393        N395   1.157       .  T
C394        N396   1.157       .  T
C397        C398   1.399       .  A
C397        C402   1.408       .  A
C398        C399   1.399       .  A
C398        H403   1.085       .  S
C399        C400   1.419       .  A
C399        C406   1.444       .  S
C400        C401   1.409       .  A
C401        C402   1.401       .  A
C401        H404   1.084       .  S
C402        C405   1.444       .  S
C405        N407   1.157       .  T
C406        N408   1.157       .  T
C409        C410   1.412       .  A
C409        C414   1.423       .  A
C410        C411   1.404       .  A
C410        H415   1.084       .  S
C411        C412   1.410       .  A
C411        C418   1.444       .  S
C412        C413   1.398       .  A
C413        C414   1.399       .  A
C413        H416   1.086       .  S
C414        C417   1.442       .  S
C417        N419   1.157       .  T
C418        N420   1.157       .  T
C421        C422   1.404       .  A
C421        C426   1.413       .  A
C422        C423   1.402       .  A
C422        H427   1.085       .  S
C423        C424   1.414       .  A
C423        C430   1.444       .  S
C424        C425   1.405       .  A
C425        C426   1.401       .  A
C425        H428   1.085       .  S
C426        C429   1.444       .  S
C429        N431   1.157       .  T
C430        N432   1.157       .  T
C433        C434   1.407       .  A
C433        C438   1.417       .  A
C434        C435   1.402   1_455  A
C434        H439   1.084       .  S
C435        C436   1.409       .  A
C435        C442   1.444       .  S
C436        C437   1.399       .  A
C437        C438   1.400   1_655  A
C437        H440   1.085       .  S
C438        C441   1.445       .  S
C441        N443   1.157       .  T
C442        N444   1.157       .  T
C445        C446   1.407       .  A
C445        C450   1.415       .  A
C446        C447   1.403   1_565  A
C446        H451   1.085       .  S
C447        C448   1.416       .  A
C447        C454   1.444       .  S
C448        C449   1.407   1_545  A
C449        C450   1.400       .  A
C449        H452   1.084       .  S
C450        C453   1.445       .  S
C453        N455   1.157       .  T
C454        N456   1.157       .  T
C457        C458   1.404       .  A
C457        C462   1.411       .  A
C458        C459   1.399       .  A
C458        H463   1.085       .  S
C459        C460   1.408       .  A
C459        C466   1.444       .  S
C460        C461   1.402       .  A
C461        C462   1.402       .  A
C461        H464   1.085       .  S
C462        C465   1.443       .  S
C465        N467   1.157       .  T
C466        N468   1.157       .  T
C469        C470   1.402       .  A
C469        C474   1.409       .  A
C470        C471   1.398       .  A
C470        H475   1.085       .  S
C471        C472   1.410       .  A
C471        C478   1.445       .  S
C472        C473   1.403       .  A
C473        C474   1.402       .  A
C473        H476   1.085       .  S
C474        C477   1.443       .  S
C477        N479   1.157       .  T
C478        N480   1.157       .  T
C481        C482   1.404       .  A
C481        C486   1.413       .  A
C482        C483   1.403       .  A
C482        H487   1.085       .  S
C483        C484   1.410   1_455  A
C483        C490   1.442   1_455  S
C484        C485   1.399       .  A
C485        C486   1.398   1_655  A
C485        H488   1.085       .  S
C486        C489   1.443       .  S
C489        N491   1.157       .  T
C490        N492   1.156       .  T
C493        C494   1.401   1_545  A
C493        C498   1.412       .  A
C494        C495   1.398       .  A
C494        H499   1.085       .  S
C495        C496   1.411       .  A
C495        C502   1.445       .  S
C496        C497   1.402       .  A
C497        C498   1.404   1_565  A
C497        H500   1.084       .  S
C498        C501   1.444       .  S
C501        N503   1.157       .  T
C502        N504   1.157       .  T
C505        C506   1.409       .  A
C505        C510   1.422       .  A
C506        C507   1.399       .  A
C506        H511   1.083       .  S
C507        C508   1.412       .  A
C507        C514   1.441       .  S
C508        C509   1.403       .  A
C509        C510   1.403       .  A
C509        H512   1.085       .  S
C510        C513   1.444       .  S
C513        N515   1.158       .  T
C514        N516   1.156       .  T
C517        C518   1.404       .  A
C517        C522   1.413       .  A
C518        C519   1.400       .  A
C518        H523   1.085       .  S
C519        C520   1.416       .  A
C519        C526   1.444       .  S
C520        C521   1.406       .  A
C521        C522   1.400       .  A
C521        H524   1.085       .  S
C522        C525   1.444       .  S
C525        N527   1.157       .  T
C526        N528   1.157       .  T
C529        C530   1.405       .  A
C529        C534   1.413       .  A
C530        C531   1.405       .  A
C530        H535   1.084       .  S
C531        C532   1.414       .  A
C531        C538   1.444       .  S
C532        C533   1.402       .  A
C533        C534   1.396       .  A
C533        H536   1.084       .  S
C534        C537   1.445       .  S
C537        N539   1.157       .  T
C538        N540   1.157       .  T
C541        C542   1.406       .  A
C541        C546   1.416       .  A
C542        C543   1.399       .  A
C542        H547   1.085       .  S
C543        C544   1.416       .  A
C543        C550   1.445       .  S
C544        C545   1.407       .  A
C545        C546   1.400       .  A
C545        H548   1.084   1_556  S
C546        C549   1.444       .  S
C549        N551   1.157   1_556  T
C550        N552   1.157       .  T
C553        C554   1.409       .  A
C553        C558   1.417       .  A
C554        C555   1.401       .  A
C554        H559   1.084       .  S
C555        C556   1.410       .  A
C555        C562   1.444       .  S
C556        C557   1.399       .  A
C557        C558   1.398       .  A
C557        H560   1.081       .  S
C558        C561   1.444       .  S
C561        N563   1.157       .  T
C562        N564   1.157       .  T
C565        C566   1.405       .  A
C565        C570   1.414       .  A
C566        C567   1.401       .  A
C566        H571   1.085       .  S
C567        C568   1.414       .  A
C567        C574   1.444       .  S
C568        C569   1.405       .  A
C569        C570   1.400       .  A
C569        H572   1.085       .  S
C570        C573   1.444       .  S
C573        N575   1.157       .  T
C574        N576   1.157       .  T
C577        C578   1.405       .  A
C577        C582   1.414       .  A
C578        C579   1.400       .  A
C578        H583   1.084       .  S
C579        C580   1.411   1_455  A
C579        C586   1.444       .  S
C580        C581   1.403       .  A
C581        C582   1.398   1_655  A
C581        H584   1.085       .  S
C582        C585   1.445       .  S
C585        N587   1.157       .  T
C586        N588   1.157       .  T
C589        C590   1.401       .  A
C589        C594   1.412       .  A
C590        C591   1.400   1_565  A
C590        H595   1.085       .  S
C591        C592   1.411       .  A
C591        C598   1.443       .  S
C592        C593   1.402   1_545  A
C593        C594   1.402       .  A
C593        H596   1.085   1_565  S
C594        C597   1.443       .  S
C597        N599   1.157       .  T
C598        N600   1.157       .  T
C601        C602   1.406       .  A
C601        C606   1.411       .  A
C602        C603   1.401       .  A
C602        H607   1.085       .  S
C603        C604   1.409       .  A
C603        C610   1.443       .  S
C604        C605   1.405       .  A
C605        C606   1.399       .  A
C605        H608   1.085   1_556  S
C606        C609   1.444       .  S
C609        N611   1.157   1_556  T
C610        N612   1.157       .  T
C613        C614   1.399       .  A
C613        C618   1.409       .  A
C614        C615   1.399       .  A
C614        H619   1.085       .  S
C615        C616   1.415       .  A
C615        C622   1.445       .  S
C616        C617   1.406       .  A
C617        C618   1.402       .  A
C617        H620   1.085       .  S
C618        C621   1.444       .  S
C621        N623   1.157       .  T
C622        N624   1.157   1_565  T
C625        C626   1.406       .  A
C625        C630   1.412       .  A
C626        C627   1.402       .  A
C626        H631   1.085       .  S
C627        C628   1.411       .  A
C627        C634   1.443       .  S
C628        C629   1.404       .  A
C629        C630   1.398       .  A
C629        H632   1.085       .  S
C630        C633   1.445       .  S
C633        N635   1.157       .  T
C634        N636   1.157       .  T
C637        C638   1.409       .  A
C637        C642   1.419       .  A
C638        C639   1.403       .  A
C638        H643   1.084       .  S
C639        C640   1.417       .  A
C639        C646   1.444       .  S
C640        C641   1.403       .  A
C641        C642   1.399       .  A
C641        H644   1.085       .  S
C642        C645   1.442       .  S
C645        N647   1.157       .  T
C646        N648   1.157       .  T
C649        C650   1.406       .  A
C649        C654   1.416       .  A
C650        C651   1.402       .  A
C650        H655   1.085       .  S
C651        C652   1.413       .  A
C651        C658   1.444       .  S
C652        C653   1.404       .  A
C653        C654   1.398       .  A
C653        H656   1.085       .  S
C654        C657   1.444       .  S
C657        N659   1.157       .  T
C658        N660   1.157       .  T
C661        C662   1.408       .  A
C661        C666   1.417       .  A
C662        C663   1.402       .  A
C662        H667   1.084       .  S
C663        C664   1.415       .  A
C663        C670   1.444       .  S
C664        C665   1.406       .  A
C665        C666   1.399       .  A
C665        H668   1.084       .  S
C666        C669   1.444       .  S
C669        N671   1.157       .  T
C670        N672   1.157       .  T
C673        C674   1.405       .  A
C673        C678   1.413       .  A
C674        C675   1.400       .  A
C674        H679   1.085       .  S
C675        C676   1.411       .  A
C675        C682   1.444       .  S
C676        C677   1.403       .  A
C677        C678   1.399       .  A
C677        H680   1.085   1_556  S
C678        C681   1.444       .  S
C681        N683   1.157   1_556  T
C682        N684   1.157       .  T
C685        C686   1.402       .  A
C685        C690   1.408       .  A
C686        C687   1.401       .  A
C686        H691   1.085       .  S
C687        C688   1.415       .  A
C687        C694   1.444       .  S
C688        C689   1.405       .  A
C689        C690   1.398       .  A
C689        H692   1.085       .  S
C690        C693   1.441       .  S
C693        N695   1.156       .  T
C694        N696   1.157       .  T
C697        C698   1.405       .  A
C697        C702   1.412       .  A
C698        C699   1.402       .  A
C698        H703   1.085       .  S
C699        C700   1.409       .  A
C699        C706   1.444       .  S
C700        C701   1.401       .  A
C701        C702   1.400       .  A
C701        H704   1.085       .  S
C702        C705   1.444       .  S
C705        N707   1.157       .  T
C706        N708   1.157       .  T
C709        C710   1.403       .  A
C709        C714   1.408       .  A
C710        C711   1.403       .  A
C710        H715   1.085       .  S
C711        C712   1.414       .  A
C711        C718   1.443       .  S
C712        C713   1.403       .  A
C713        C714   1.397       .  A
C713        H716   1.085       .  S
C714        C717   1.440       .  S
C717        N719   1.156       .  T
C718        N720   1.157       .  T
