geometry optimzed in LAMMPS
_audit_creation_date              2020-11-30 
_audit_creation_method            'lammps2cif' 
_symmetry_space_group_name_H-M    'P1' 
_symmetry_Int_Tables_number       1 
_symmetry_cell_setting            triclinic 
loop_ 
_symmetry_equiv_pos_as_xyz 
  x,y,z 
_cell_length_a                    25.23192315 
_cell_length_b                    44.82799254358452 
_cell_length_c                    35.00608139683705 
_cell_angle_alpha                 81.40483070691751 
_cell_angle_beta                  76.16005472559901 
_cell_angle_gamma                 87.40909845588676 
loop_ 
_atom_site_label 
_atom_site_type_symbol 
_atom_site_fract_x 
_atom_site_fract_y 
_atom_site_fract_z 
_atom_site_charge 
N1          N  0.08511256  0.49942392  0.98923864    -0.36700
N2          N  0.00368779  0.45316942  0.99916458    -0.57200
N3          N  0.92095962  0.99998372  0.99624695    -0.36700
N4          N  0.00139168  0.04602291  0.98978740    -0.57200
C5          C  0.11218825  0.47429772  0.00113707     0.26900
C6          C  0.11127594  0.02344229  0.99513757     0.26900
C7          C  0.88933611  0.47516084  0.00655260     0.26900
C8          C  0.88775156  0.02414022  0.00292413     0.26900
C9          C  0.04945333  0.43595838  0.99281301     0.35500
C10         C  0.96294399  0.43635424  0.99483169     0.35500
C11         C  0.04607913  0.06366177  0.97882321     0.35500
C12         C  0.95894403  0.06388620  0.98326110     0.35500
C13         C  0.15596914  0.48243167  0.01476043    -0.21900
C14         C  0.15539494  0.01343092  0.01098985    -0.21900
C15         C  0.83523986  0.48364071  0.01976663    -0.21900
C16         C  0.83424586  0.01457174  0.01749242    -0.21900
C17         C  0.03770678  0.40799863  0.98465806    -0.23000
C18         C  0.98283921  0.40826298  0.98589460    -0.23000
C19         C  0.03194866  0.09287859  0.96519303    -0.23000
C20         C  0.97663448  0.09305954  0.96825566    -0.23000
C21         C  0.10061994  0.44440711  0.99738570    -0.18400
C22         C  0.09830887  0.05416602  0.98429802    -0.18400
C23         C  0.90394434  0.05467080  0.99308702    -0.18300
C24         C  0.90750110  0.44540240  0.00120346    -0.18300
H25         H  0.18570037  0.46756589  0.02576024     0.14600
H26         H  0.18449012  0.02706421  0.01873660     0.14600
H27         H  0.79999433  0.46911247  0.02928351     0.14600
H28         H  0.79807785  0.02847626  0.02483767     0.14600
H29         H  0.06561857  0.38926717  0.97885083     0.12800
H30         H  0.96009888  0.38977997  0.98120192     0.12800
H31         H  0.05848091  0.11217564  0.95475431     0.12800
H32         H  0.95217093  0.11248543  0.96060777     0.12800
H33         H  0.05472632  0.50029752  0.97357443     0.26100
H34         H  0.96161439  0.00069437  0.98087274     0.26100
N35         N  0.08201516  0.49969084  0.50100106    -0.36700
N36         N  0.00319657  0.45353619  0.50439724    -0.57200
N37         N  0.91697739  0.99935291  0.50999300    -0.36700
N38         N  0.99698131  0.04572042  0.50319121    -0.57200
C39         C  0.11600199  0.47607292  0.49276226     0.26900
C40         C  0.11264926  0.02493722  0.49129328     0.26900
C41         C  0.89144382  0.47595803  0.50185264     0.26900
C42         C  0.88808174  0.02471303  0.50164143     0.26900
C43         C  0.04622854  0.43556377  0.50950988     0.35500
C44         C  0.95919269  0.43544954  0.51296484     0.35500
C45         C  0.03780557  0.06243410  0.50757698     0.35500
C46         C  0.95062015  0.06210550  0.51254882     0.35500
C47         C  0.16900791  0.48642447  0.47792960    -0.21900
C48         C  0.16684730  0.01726525  0.47684655    -0.21900
C49         C  0.84577888  0.48661417  0.48827947    -0.21900
C50         C  0.84358504  0.01732641  0.48826987    -0.21900
C51         C  0.02956159  0.40585620  0.52102004    -0.23000
C52         C  0.97440146  0.40580470  0.52340122    -0.23000
C53         C  0.01732590  0.08959615  0.51967113    -0.23000
C54         C  0.96202988  0.08936640  0.52287981    -0.23000
C55         C  0.10094933  0.44530495  0.50109488    -0.18400
C56         C  0.09369162  0.05427452  0.49848954    -0.18400
C57         C  0.89937020  0.05412336  0.50759670    -0.18300
C58         C  0.90648916  0.44507756  0.50846990    -0.18300
H59         H  0.20567692  0.47314722  0.46939589     0.14600
H60         H  0.20145761  0.03224695  0.46739527     0.14600
H61         H  0.81674343  0.47359308  0.47951710     0.14600
H62         H  0.81260996  0.03248148  0.47949166     0.14600
H63         H  0.05458196  0.38619837  0.52664843     0.12800
H64         H  0.94862704  0.38611659  0.53139907     0.12800
H65         H  0.03993077  0.10783077  0.52514467     0.12800
H66         H  0.93365730  0.10746574  0.53103470     0.12800
H67         H  0.04165858  0.49821277  0.51699018     0.26100
H68         H  0.94863992  0.99767705  0.52453858     0.26100
O69         O  0.43848623  0.24652806  0.10035418    -0.80900
O70         O  0.47456399  0.25570875  0.91707980    -0.65600
O71         O  0.47724287  0.22814918  0.02480558    -1.12200
C72         C  0.62108946  0.29851505  0.99824315     1.05900
O73         O  0.56412350  0.25111330  0.89794080    -0.78800
O74         O  0.62605094  0.23594245  0.95059584    -0.66400
Ni75       Ni  0.41172433  0.22421972  0.06580836     1.34900
C76         C  0.62203230  0.22085327  0.98481197     0.84700
O77         O  0.41956234  0.21268017  0.97111947    -0.79400
O78         O  0.37919492  0.20061033  0.03594852    -0.89700
C79         C  0.51752561  0.25428540  0.88985288     0.84300
O80         O  0.37555324  0.26007927  0.04796471    -0.67900
O81         O  0.62803335  0.29450014  0.96209195    -0.87100
C82         C  0.38057950  0.27658491  0.01454799     0.85100
C83         C  0.38463203  0.19805341  0.99937889     1.06600
H84         H  0.51069716  0.29010673  0.97176313     0.38500
O85         O  0.52671106  0.27009744  0.97289965    -1.09800
O86         O  0.58719349  0.22704103  0.01547859    -0.66500
Ni87       Ni  0.53004516  0.25688255  0.02655496     1.26300
O88         O  0.41623143  0.27163991  0.98356291    -0.66700
O89         O  0.58303417  0.28639752  0.02647840    -0.79000
C90         C  0.48541466  0.24523426  0.10804839     0.84500
O91         O  0.52833910  0.24349289  0.08094226    -0.66200
Ni92       Ni  0.59281205  0.27247747  0.93227520     1.27400
Ni93       Ni  0.47311427  0.24177127  0.97131936     1.26100
H94         H  0.49406845  0.20833381  0.02528176     0.39000
O95         O  0.44308420  0.24684331  0.60414496    -0.80900
O96         O  0.47108892  0.24927811  0.41874061    -0.65600
O97         O  0.47644046  0.23114735  0.52751468    -1.12200
C98         C  0.62359048  0.30036981  0.48665990     1.05900
O99         O  0.55990663  0.24300178  0.39756276    -0.78800
O100        O  0.62106401  0.23044557  0.45161435    -0.66400
Ni101      Ni  0.40880626  0.23407740  0.56606386     1.34900
C102        C  0.61829068  0.21943023  0.48760125     0.84700
O103        O  0.41908128  0.20957778  0.47829148    -0.79400
O104        O  0.36425474  0.21969925  0.53462808    -0.89700
C105        C  0.51237329  0.24598489  0.39098568     0.84300
O106        O  0.39689357  0.27502942  0.54622341    -0.67900
O107        O  0.63050985  0.29148539  0.45281881    -0.87100
C108        C  0.39243248  0.28433843  0.51112634     0.85100
C109        C  0.37363957  0.20688858  0.50351411     1.07200
H110        H  0.51128999  0.28898469  0.46417365     0.38500
O111        O  0.52648427  0.26895901  0.46879305    -1.09800
O112        O  0.58724230  0.23023877  0.51673258    -0.66500
Ni113      Ni  0.53096838  0.26114637  0.52298618     1.26300
O114        O  0.41489532  0.27071115  0.48170463    -0.66700
O115        O  0.58503740  0.29127904  0.51644029    -0.79000
C116        C  0.49111191  0.25132820  0.60734670     0.84500
O117        O  0.53183898  0.25390355  0.57781095    -0.66200
Ni118      Ni  0.59198372  0.26675005  0.42796698     1.27400
Ni119      Ni  0.47199596  0.23986707  0.47319230     1.26100
H120        H  0.49139210  0.21108228  0.53221416     0.39000
C121        C  0.51401391  0.25489469  0.84806427    -0.19900
C122        C  0.46743664  0.26621380  0.83461210     0.36300
C123        C  0.46691080  0.26655390  0.79456825    -0.25900
C124        C  0.51129327  0.25542043  0.76778453     0.02700
C125        C  0.55778038  0.24415056  0.78104352     0.27500
C126        C  0.55887856  0.24429855  0.82089705    -0.25000
N127        N  0.42097278  0.27746524  0.86137437    -0.82400
H128        H  0.43146217  0.27545844  0.78410106     0.13300
C129        C  0.50699505  0.25434673  0.72651067     0.02700
N130        N  0.60316309  0.23205145  0.75422503    -0.81000
H131        H  0.59468354  0.23547274  0.83091956     0.18200
C132        C  0.54679925  0.26810322  0.69417066    -0.25800
C133        C  0.54330241  0.26740734  0.65476267     0.36200
C134        C  0.49846532  0.25296162  0.64779285    -0.19900
C135        C  0.45873991  0.23943130  0.68041251    -0.25100
C136        C  0.46298019  0.23951951  0.71948820     0.27600
H137        H  0.58043212  0.27962223  0.69975459     0.13300
N138        N  0.58472028  0.28147603  0.62212564    -0.82400
H139        H  0.42458312  0.22798408  0.67548114     0.18200
N140        N  0.42319838  0.22410759  0.75215265    -0.81000
H141        H  0.61542610  0.29032162  0.63247093     0.33800
H142        H  0.56660989  0.29978405  0.60760978     0.38300
H143        H  0.39316760  0.21447704  0.74195321     0.33800
H144        H  0.44323399  0.20627958  0.76597618     0.30500
H145        H  0.63424107  0.22477912  0.76864924     0.33800
H146        H  0.58957145  0.21292473  0.74571696     0.30500
H147        H  0.43300400  0.29702360  0.86983183     0.38300
H148        H  0.38957057  0.28391038  0.84695158     0.33800
C149        C  0.48933423  0.24634594  0.14944148    -0.19900
C150        C  0.53786761  0.25465603  0.15854906     0.36300
C151        C  0.53966722  0.25380801  0.19850795    -0.25900
C152        C  0.49408200  0.24514960  0.22949615     0.02700
C153        C  0.44527846  0.23759945  0.22046991     0.27500
C154        C  0.44338595  0.23837491  0.18060538    -0.25000
N155        N  0.58485585  0.26429630  0.12739827    -0.82400
H156        H  0.57669360  0.26023646  0.20560668     0.13300
C157        C  0.49800040  0.24436787  0.27125434     0.02700
N158        N  0.39809296  0.22874383  0.25184814    -0.81000
H159        H  0.40601236  0.23203606  0.17394019     0.18200
C160        C  0.46125026  0.26161362  0.29609956    -0.25800
C161        C  0.46363302  0.26159042  0.33576363     0.36200
C162        C  0.50519829  0.24476935  0.35046336    -0.19900
C163        C  0.54210794  0.22759321  0.32543568    -0.25100
C164        C  0.53824328  0.22674791  0.28623794     0.27600
H165        H  0.43057463  0.27523636  0.28438861     0.13300
N166        N  0.42520869  0.27946482  0.36052968    -0.82400
H167        H  0.57366184  0.21444944  0.33668255     0.18200
N168        N  0.57464681  0.20789203  0.26165903    -0.81000
H169        H  0.40061124  0.29241779  0.34406070     0.33800
H170        H  0.39887839  0.26457604  0.38170387     0.38300
H171        H  0.60185346  0.19636682  0.27711824     0.33800
H172        H  0.55107435  0.19149091  0.25536510     0.30500
H173        H  0.36536450  0.22413106  0.24018757     0.33800
H174        H  0.40779557  0.20857615  0.26807673     0.30500
H175        H  0.57448905  0.28460084  0.11179535     0.38300
H176        H  0.61728681  0.26906685  0.13927472     0.33800
C177        C  0.14510249  0.42206000  0.50077466    -0.19900
C178        C  0.17635224  0.41277416  0.46517572     0.36300
C179        C  0.21813604  0.39127701  0.46701921    -0.25900
C180        C  0.22865345  0.37802175  0.50350796     0.02700
C181        C  0.19619847  0.38678214  0.53923690     0.27500
C182        C  0.15594835  0.40920310  0.53718418    -0.25000
N183        N  0.16657304  0.42430061  0.42683459    -0.82400
H184        H  0.24240306  0.38459329  0.43958377     0.13300
C185        C  0.27280698  0.35476776  0.50315707     0.02700
N186        N  0.20159625  0.37307557  0.57804012    -0.81000
H187        H  0.13175272  0.41613724  0.56448770     0.18200
C188        C  0.31699723  0.35921512  0.51960612    -0.25800
C189        C  0.35747060  0.33677220  0.52186436     0.36200
C190        C  0.35534555  0.31017622  0.50525429    -0.19900
C191        C  0.31262802  0.30636401  0.48716753    -0.25100
C192        C  0.27055695  0.32799993  0.48690154     0.27600
H193        H  0.31879397  0.37984389  0.53189622     0.13300
N194        N  0.40008090  0.34058369  0.54155175    -0.82400
H195        H  0.31032811  0.28555403  0.47538036     0.18200
N196        N  0.22451229  0.32243632  0.47151930    -0.81000
H197        H  0.39542407  0.36120144  0.55261359     0.33800
H198        H  0.43715890  0.34147257  0.52026840     0.38300
H199        H  0.22884667  0.30161735  0.46098649     0.33800
H200        H  0.18998875  0.32084222  0.49520478     0.30500
H201        H  0.16395406  0.36358153  0.59324462     0.33800
H202        H  0.22929671  0.35509559  0.57657426     0.30500
H203        H  0.13352072  0.43931001  0.42892707     0.38300
H204        H  0.20101582  0.43644593  0.41038276     0.33800
C205        C  0.86586784  0.42184409  0.50827358    -0.19900
C206        C  0.81485061  0.41961265  0.53585586     0.36300
C207        C  0.77625127  0.39889323  0.53320358    -0.25900
C208        C  0.78785349  0.37997544  0.50368620     0.02700
C209        C  0.83990405  0.38132057  0.47685787     0.27500
C210        C  0.87782692  0.40252163  0.47918922    -0.25000
N211        N  0.80202474  0.43856884  0.56639698    -0.82400
H212        H  0.73666729  0.39785489  0.55397122     0.13300
C213        C  0.74428054  0.35996536  0.50061927     0.02700
N214        N  0.85577418  0.36169902  0.44697964    -0.81000
H215        H  0.91702032  0.40402766  0.45794454     0.18200
C216        C  0.71872955  0.36698462  0.46892159    -0.25800
C217        C  0.67854942  0.34811664  0.46401509     0.36200
C218        C  0.66342955  0.32180506  0.49168116    -0.19900
C219        C  0.68760641  0.31543033  0.52424016    -0.25100
C220        C  0.72825662  0.33417152  0.52882238     0.27600
H221        H  0.73065784  0.38715135  0.44775219     0.13300
N222        N  0.65176499  0.35617031  0.43193083    -0.82400
H223        H  0.67580713  0.29530119  0.54551202     0.18200
N224        N  0.75378020  0.32700164  0.56167189    -0.81000
H225        H  0.66445700  0.37740129  0.41640365     0.33800
H226        H  0.66460406  0.34086552  0.41172562     0.38300
H227        H  0.73716442  0.30737349  0.57985550     0.33800
H228        H  0.79495853  0.32228228  0.55005857     0.30500
H229        H  0.88923463  0.34885602  0.45299621     0.33800
H230        H  0.82532668  0.34628844  0.44850281     0.30500
H231        H  0.79272091  0.42471159  0.59387737     0.38300
H232        H  0.76705974  0.45118722  0.56323567     0.33800
C233        C  0.85617782  0.07803854  0.50686822    -0.19900
C234        C  0.86255975  0.10357675  0.47690814     0.36300
C235        C  0.82165114  0.12589044  0.47886815    -0.25900
C236        C  0.77348935  0.12299815  0.50896653     0.02700
C237        C  0.76579080  0.09702182  0.53782834     0.27500
C238        C  0.80770723  0.07508630  0.53691144    -0.25000
N239        N  0.90866311  0.10715912  0.44330161    -0.82400
H240        H  0.82676461  0.14534381  0.45588411     0.13300
C241        C  0.73000477  0.14627421  0.50724861     0.02700
N242        N  0.71467420  0.09232659  0.56671335    -0.81000
H243        H  0.80235797  0.05532658  0.55940904     0.18200
C244        C  0.69795073  0.14561801  0.47975066    -0.25800
C245        C  0.66027088  0.16887781  0.47358690     0.36200
C246        C  0.65397128  0.19317095  0.49579825    -0.19900
C247        C  0.68499439  0.19339224  0.52419928    -0.25100
C248        C  0.72374986  0.17044065  0.52964794     0.27600
H249        H  0.70341403  0.12718340  0.46231460     0.13300
N250        N  0.62870561  0.16808028  0.44458482    -0.82400
H251        H  0.68081129  0.21227488  0.54079402     0.18200
N252        N  0.75888075  0.17253521  0.55597719    -0.81000
H253        H  0.63853394  0.14887317  0.43054353     0.33800
H254        H  0.58765864  0.16616844  0.45974900     0.38300
H255        H  0.75043933  0.19228700  0.56897315     0.33800
H256        H  0.75005751  0.15463866  0.57920723     0.30500
H257        H  0.71502111  0.07157079  0.58482607     0.33800
H258        H  0.71022124  0.10885372  0.58534548     0.30500
H259        H  0.93431051  0.08824698  0.44243832     0.38300
H260        H  0.93132943  0.12538094  0.44593857     0.33800
C261        C  0.13461569  0.07758270  0.49714321    -0.19900
C262        C  0.16371870  0.07652382  0.52724165     0.36300
C263        C  0.20189413  0.09892669  0.52438062    -0.25900
C264        C  0.21043242  0.12315328  0.49319360     0.02700
C265        C  0.18085338  0.12454018  0.46347398     0.27500
C266        C  0.14382402  0.10145527  0.46544210    -0.25000
N267        N  0.15437670  0.05383854  0.56178355    -0.82400
H268        H  0.22433876  0.09778826  0.54738371     0.13300
C269        C  0.24907627  0.14723794  0.49343407     0.02700
N270        N  0.18753616  0.14968179  0.43206588    -0.81000
H271        H  0.12114510  0.10232431  0.44262188     0.18200
C272        C  0.29409939  0.15409420  0.46122842    -0.25800
C273        C  0.33405761  0.17470483  0.46256099     0.36200
C274        C  0.32970088  0.18799946  0.49754599    -0.19900
C275        C  0.28284139  0.18217321  0.52872129    -0.25100
C276        C  0.24243518  0.16231911  0.52683308     0.27600
H277        H  0.29864334  0.14284405  0.43528693     0.13300
N278        N  0.37897717  0.18182445  0.42871008    -0.82400
H279        H  0.27791989  0.19269688  0.55527541     0.18200
N280        N  0.19475840  0.15708792  0.55900229    -0.81000
H281        H  0.37648971  0.16968477  0.40591992     0.33800
H282        H  0.37518493  0.20461443  0.41762624     0.38300
H283        H  0.19604598  0.16978218  0.58150058     0.33800
H284        H  0.16088620  0.16484784  0.54792019     0.30500
H285        H  0.16267805  0.14730489  0.41273418     0.33800
H286        H  0.17379502  0.16903312  0.44501685     0.30500
H287        H  0.12273681  0.03940030  0.56259815     0.38300
H288        H  0.18987763  0.04067568  0.56036351     0.33800
C289        C  0.34200394  0.30239196  0.01159737    -0.19900
C290        C  0.32574882  0.32028404  0.04247936     0.36300
C291        C  0.28632581  0.34325056  0.03980443    -0.25900
C292        C  0.26225890  0.34861398  0.00713218     0.02700
C293        C  0.27863538  0.33076996  0.97617978     0.27500
C294        C  0.31889887  0.30817896  0.97846463    -0.25000
N295        N  0.34981381  0.31529198  0.07624021    -0.82400
H296        H  0.27455088  0.35723626  0.06322762     0.13300
C297        C  0.22071029  0.37328903  0.00541439     0.02700
N298        N  0.25347092  0.33524265  0.94296373    -0.81000
H299        H  0.33090657  0.29428839  0.95493390     0.18200
C300        C  0.22877319  0.39591204  0.97220577    -0.25800
C301        C  0.19056183  0.41946923  0.96915736     0.36200
C302        C  0.14328684  0.42052603  0.00008918    -0.19900
C303        C  0.13538206  0.39819009  0.03354006    -0.25100
C304        C  0.17348804  0.37453915  0.03652746     0.27600
H305        H  0.26525283  0.39521706  0.94856497     0.13300
N306        N  0.19878184  0.44177345  0.93425965    -0.82400
H307        H  0.09892757  0.39909113  0.05716881     0.18200
N308        N  0.16407292  0.35161015  0.07076409    -0.81000
H309        H  0.23412904  0.43685256  0.91347686     0.33800
H310        H  0.20567615  0.46242315  0.94256424     0.38300
H311        H  0.12773629  0.35593827  0.09097612     0.33800
H312        H  0.15890195  0.33117105  0.06117347     0.30500
H313        H  0.27000990  0.32032895  0.92281931     0.33800
H314        H  0.21218581  0.32987060  0.95380625     0.30500
H315        H  0.39133387  0.32027600  0.06601732     0.38300
H316        H  0.33324910  0.33021116  0.09637128     0.33800
C317        C  0.66084752  0.31788484  0.00707197    -0.19900
C318        C  0.71630838  0.30914465  0.00057997     0.36300
C319        C  0.75529995  0.32979612  0.00280066    -0.25900
C320        C  0.73974860  0.35898078  0.01104082     0.02700
C321        C  0.68409192  0.36740886  0.01894672     0.27500
C322        C  0.64490500  0.34661910  0.01708651    -0.25000
N323        N  0.73277242  0.27956511  0.99071777    -0.82400
H324        H  0.79815419  0.32349362  0.99688206     0.13300
C325        C  0.78265575  0.38096408  0.00900594     0.02700
N326        N  0.66798564  0.39727059  0.02771907    -0.81000
H327        H  0.60225841  0.35324072  0.02171728     0.18200
C328        C  0.79710337  0.40263660  0.97514047    -0.25800
C329        C  0.83878747  0.42327751  0.97117346     0.36200
C330        C  0.86583774  0.42262770  0.00240466    -0.19900
C331        C  0.85166902  0.40069767  0.03614015    -0.25100
C332        C  0.81049032  0.37966392  0.03960578     0.27600
H333        H  0.77639987  0.40314500  0.95124833     0.13300
N334        N  0.85329712  0.44392379  0.93477051    -0.82400
H335        H  0.87259327  0.40020432  0.05989730     0.18200
N336        N  0.79680102  0.35696785  0.07391978    -0.81000
H337        H  0.82022143  0.45863531  0.93348942     0.33800
H338        H  0.88678498  0.45708308  0.93378529     0.38300
H339        H  0.82143158  0.35889794  0.09355548     0.33800
H340        H  0.75666168  0.36108488  0.08891778     0.30500
H341        H  0.62564603  0.39999001  0.03243116     0.33800
H342        H  0.67785902  0.39950815  0.05450114     0.30500
H343        H  0.71501273  0.26384945  0.01514568     0.38300
H344        H  0.77504077  0.27674215  0.98650537     0.33800
C345        C  0.66178578  0.19579791  0.98887817    -0.19900
C346        C  0.65007383  0.17032514  0.01862312     0.36300
C347        C  0.69029734  0.14770338  0.02094626    -0.25900
C348        C  0.74167394  0.15009613  0.99424047     0.02700
C349        C  0.75388568  0.17583747  0.96541335     0.27500
C350        C  0.71371618  0.19817018  0.96269252    -0.25000
N351        N  0.59732472  0.16718255  0.04576991    -0.82400
H352        H  0.68124215  0.12780568  0.04305529     0.13300
C353        C  0.78178078  0.12496304  0.99518503     0.02700
N354        N  0.80733600  0.17924578  0.93922208    -0.81000
H355        H  0.72350693  0.21791087  0.94040247     0.18200
C356        C  0.79712484  0.10949694  0.96217252    -0.25800
C357        C  0.83631255  0.08631757  0.96070755     0.36200
C358        C  0.86087086  0.07839880  0.99323770    -0.19900
C359        C  0.84517274  0.09366163  0.02646193    -0.25100
C360        C  0.80592113  0.11701047  0.02771385     0.27600
H361        H  0.77869475  0.11571070  0.93709057     0.13300
N362        N  0.85085039  0.07196223  0.92547490    -0.82400
H363        H  0.86421872  0.08752786  0.05123168     0.18200
N364        N  0.79119584  0.13301304  0.06144027    -0.81000
H365        H  0.81629086  0.06082785  0.92348744     0.33800
H366        H  0.88123282  0.05555932  0.92697361     0.38300
H367        H  0.81261671  0.12431518  0.08285300     0.33800
H368        H  0.80362395  0.15536498  0.05174733     0.30500
H369        H  0.80973923  0.19943642  0.91961771     0.33800
H370        H  0.83510230  0.18091451  0.95668870     0.30500
H371        H  0.56874225  0.16479426  0.02921112     0.38300
H372        H  0.59579328  0.14741241  0.06606452     0.33800
C373        C  0.14059342  0.07737778  0.98089233    -0.19900
C374        C  0.19203578  0.07648750  0.95394973     0.36300
C375        C  0.23275844  0.09681750  0.95427668    -0.25900
C376        C  0.22239490  0.11855592  0.98010096     0.02700
C377        C  0.17018471  0.12058319  0.00550345     0.27500
C378        C  0.12995415  0.09973156  0.00598928    -0.25000
N379        N  0.20280298  0.05461497  0.92684562    -0.82400
H380        H  0.27290739  0.09554245  0.93467900     0.13300
C381        C  0.26744572  0.13785129  0.98220076     0.02700
N382        N  0.15838404  0.14376078  0.03071983    -0.81000
H383        H  0.09039801  0.10054758  0.02648251     0.18200
C384        C  0.27647729  0.16593791  0.95805640    -0.25800
C385        C  0.31685118  0.18549237  0.96141197     0.36200
C386        C  0.34777956  0.17682671  0.99008710    -0.19900
C387        C  0.33966401  0.14827848  0.01325755    -0.25100
C388        C  0.30011477  0.12860287  0.00938235     0.27600
H389        H  0.25130202  0.17277737  0.93709363     0.13300
N390        N  0.32441503  0.21464309  0.93742259    -0.82400
H391        H  0.36375232  0.14153204  0.03497795     0.18200
N392        N  0.29270251  0.09932023  0.03307851    -0.81000
H393        H  0.29639187  0.21809545  0.91945511     0.33800
H394        H  0.36305621  0.21466004  0.91809441     0.38300
H395        H  0.32068878  0.09576165  0.05106846     0.33800
H396        H  0.25392650  0.09894138  0.05225881     0.30500
H397        H  0.11777091  0.14254135  0.04695829     0.33800
H398        H  0.18253004  0.13964276  0.05142969     0.30500
H399        H  0.17665429  0.05947022  0.90758680     0.38300
H400        H  0.24261625  0.05677502  0.90924066     0.33800
N401        N  0.08511318  0.99942405  0.98922880    -0.36700
N402        N  0.00368784  0.95316919  0.99915110    -0.57200
N403        N  0.92095993  0.49998440  0.99625667    -0.36700
N404        N  0.00139138  0.54602340  0.98979355    -0.57200
C405        C  0.11218937  0.97429683  0.00112329     0.26900
C406        C  0.11127718  0.52344349  0.99514144     0.26900
C407        C  0.88933463  0.97516056  0.00654295     0.26900
C408        C  0.88775158  0.52414032  0.00293819     0.26900
C409        C  0.04945442  0.93595941  0.99279355     0.35500
C410        C  0.96294227  0.93635383  0.99482104     0.35500
C411        C  0.04608001  0.56366131  0.97882213     0.35500
C412        C  0.95894281  0.56388632  0.98326806     0.35500
C413        C  0.15596872  0.98242881  0.01475006    -0.21900
C414        C  0.15539680  0.51343401  0.01099412    -0.21900
C415        C  0.83523787  0.98364152  0.01975206    -0.21900
C416        C  0.83424695  0.51457085  0.01751015    -0.21900
C417        C  0.03770706  0.90800049  0.98463628    -0.23000
C418        C  0.98283742  0.90826374  0.98587928    -0.23000
C419        C  0.03194937  0.59287714  0.96518760    -0.23000
C420        C  0.97663372  0.59305855  0.96825574    -0.23000
C421        C  0.10062147  0.94440716  0.99736702    -0.18400
C422        C  0.09831051  0.55416647  0.98429655    -0.18400
C423        C  0.90394269  0.55467121  0.99309989    -0.18300
C424        C  0.90749869  0.94540135  0.00119785    -0.18300
H425        H  0.18569969  0.96756194  0.02574847     0.14600
H426        H  0.18449353  0.52706859  0.01873702     0.14600
H427        H  0.79999130  0.96911400  0.02926730     0.14600
H428        H  0.79807896  0.52847473  0.02485940     0.14600
H429        H  0.06561956  0.88927002  0.97882433     0.12800
H430        H  0.96009579  0.88978106  0.98118708     0.12800
H431        H  0.05848258  0.61217339  0.95474293     0.12800
H432        H  0.95216974  0.61248387  0.96060651     0.12800
H433        H  0.05472768  0.00029933  0.97356370     0.26100
H434        H  0.96161326  0.50069548  0.98087894     0.26100
N435        N  0.08202761  0.99969220  0.50099729    -0.36700
N436        N  0.00321289  0.95353667  0.50438661    -0.57200
N437        N  0.91696609  0.49935452  0.50999744    -0.36700
N438        N  0.99697453  0.54572150  0.50319139    -0.57200
C439        C  0.11601723  0.97607504  0.49276084     0.26900
C440        C  0.11263862  0.52493526  0.49129237     0.26900
C441        C  0.89145839  0.97595683  0.50184435     0.26900
C442        C  0.88807150  0.52471479  0.50164479     0.26900
C443        C  0.04624605  0.93556473  0.50949799     0.35500
C444        C  0.95921026  0.93544913  0.51295297     0.35500
C445        C  0.03780046  0.56243469  0.50757627     0.35500
C446        C  0.95061441  0.56210807  0.51254637     0.35500
C447        C  0.16902372  0.98642743  0.47793579    -0.21900
C448        C  0.16683430  0.51726233  0.47683891    -0.21900
C449        C  0.84579452  0.98661312  0.48826978    -0.21900
C450        C  0.84357223  0.51732782  0.48827629    -0.21900
C451        C  0.02958142  0.90585664  0.52100525    -0.23000
C452        C  0.97442136  0.90580430  0.52338702    -0.23000
C453        C  0.01732294  0.58959817  0.51966666    -0.23000
C454        C  0.96202680  0.58936981  0.52287388    -0.23000
C455        C  0.10096575  0.94530694  0.50108760    -0.18400
C456        C  0.09368603  0.55427266  0.49849178    -0.18400
C457        C  0.89936244  0.55412557  0.50759723    -0.18300
C458        C  0.90650547  0.94507648  0.50845971    -0.18300
H459        H  0.20569444  0.97315068  0.46940561     0.14600
H460        H  0.20144521  0.53224347  0.46738250     0.14600
H461        H  0.81676164  0.97359235  0.47950426     0.14600
H462        H  0.81259702  0.53248288  0.47949826     0.14600
H463        H  0.05460304  0.88619915  0.52663270     0.12800
H464        H  0.94864851  0.88611558  0.53138435     0.12800
H465        H  0.03992922  0.60783281  0.52513863     0.12800
H466        H  0.93365576  0.60747036  0.53102623     0.12800
H467        H  0.04166850  0.99821323  0.51698058     0.26100
H468        H  0.94863028  0.49767923  0.52454134     0.26100
O469        O  0.43848166  0.74652376  0.10036613    -0.80900
O470        O  0.47455764  0.75571013  0.91708785    -0.65600
O471        O  0.47723596  0.72814817  0.02481456    -1.12200
C472        C  0.62107860  0.79851697  0.99825177     1.05900
O473        O  0.56411610  0.75110987  0.89795436    -0.78800
O474        O  0.62604846  0.73594458  0.95060631    -0.66400
Ni475      Ni  0.41171889  0.72421726  0.06581841     1.34900
C476        C  0.62202577  0.72085297  0.98482143     0.84700
O477        O  0.41955632  0.71267994  0.97112802    -0.79400
O478        O  0.37918926  0.70060921  0.03595717    -0.89700
C479        C  0.51752166  0.75428875  0.88986191     0.84300
O480        O  0.37554664  0.76007715  0.04797698    -0.67900
O481        O  0.62802177  0.79450415  0.96209980    -0.87100
C482        C  0.38057078  0.77658275  0.01456034     0.85100
C483        C  0.38462646  0.69805282  0.99938730     1.06600
H484        H  0.51068884  0.79010630  0.97177376     0.38500
O485        O  0.52670318  0.77009711  0.97290959    -1.09800
O486        O  0.58718432  0.72703922  0.01548731    -0.66500
Ni487      Ni  0.53003823  0.75688127  0.02656422     1.26300
O488        O  0.41622251  0.77163846  0.98357458    -0.66700
O489        O  0.58302768  0.78639577  0.02648740    -0.79000
C490        C  0.48541151  0.74523157  0.10805812     0.84500
O491        O  0.52833459  0.74349094  0.08095077    -0.66200
Ni492      Ni  0.59280392  0.77247779  0.93228492     1.27400
Ni493      Ni  0.47310707  0.74177110  0.97132837     1.26100
H494        H  0.49406168  0.70833280  0.02528985     0.39000
O495        O  0.44309062  0.74684899  0.60415198    -0.80900
O496        O  0.47108978  0.74927669  0.41874899    -0.65600
O497        O  0.47644668  0.73115171  0.52752282    -1.12200
C498        C  0.62359378  0.80037422  0.48666374     1.05900
O499        O  0.55990899  0.74300650  0.39756796    -0.78800
O500        O  0.62105791  0.73044656  0.45162223    -0.66400
Ni501      Ni  0.40881224  0.73408064  0.56607285     1.34900
C502        C  0.61829009  0.71943589  0.48760984     0.84700
O503        O  0.41908613  0.70957669  0.47830404    -0.79400
O504        O  0.36425907  0.71969942  0.53463988    -0.89700
C505        C  0.51237469  0.74598689  0.39099283     0.84300
O506        O  0.39689790  0.77503226  0.54623075    -0.67900
O507        O  0.63051665  0.79148496  0.45282555    -0.87100
C508        C  0.39243898  0.78434029  0.51113296     0.85100
C509        C  0.37364532  0.70688603  0.50352808     1.07200
H510        H  0.51129047  0.78898781  0.46417593     0.38500
O511        O  0.52648589  0.76896271  0.46879774    -1.09800
O512        O  0.58724902  0.73024918  0.51674010    -0.66500
Ni513      Ni  0.53097018  0.76115429  0.52299093     1.26300
O514        O  0.41489924  0.77071127  0.48171259    -0.66700
O515        O  0.58503420  0.79128988  0.51644239    -0.79000
C516        C  0.49111721  0.75133926  0.60735163     0.84500
O517        O  0.53184257  0.75391575  0.57781496    -0.66200
Ni518      Ni  0.59198664  0.76675259  0.42797317     1.27400
Ni519      Ni  0.47199988  0.73986813  0.47320073     1.26100
H520        H  0.49140151  0.71108754  0.53222341     0.39000
C521        C  0.51401760  0.75490849  0.84806960    -0.19900
C522        C  0.46744621  0.76623506  0.83461528     0.36300
C523        C  0.46692629  0.76658346  0.79456895    -0.25900
C524        C  0.51130721  0.75544903  0.76778462     0.02700
C525        C  0.55779246  0.74417597  0.78104441     0.27500
C526        C  0.55888514  0.74431644  0.82090064    -0.25000
N527        N  0.42098126  0.77748466  0.86137838    -0.82400
H528        H  0.43148111  0.77549305  0.78410096     0.13300
C529        C  0.50700484  0.75437358  0.72651155     0.02700
N530        N  0.60317859  0.73208090  0.75422441    -0.81000
H531        H  0.59468756  0.73548708  0.83092396     0.18200
C532        C  0.54681677  0.76811945  0.69416826    -0.25800
C533        C  0.54331776  0.76741904  0.65476166     0.36200
C534        C  0.49847170  0.75297868  0.64779614    -0.19900
C535        C  0.45873761  0.73946023  0.68041881    -0.25100
C536        C  0.46297804  0.73955396  0.71949321     0.27600
H537        H  0.58045752  0.77963392  0.69974829     0.13300
N538        N  0.58474277  0.78147788  0.62212169    -0.82400
H539        H  0.42457253  0.72801808  0.67549145     0.18200
N540        N  0.42318303  0.72415536  0.75216076    -0.81000
H541        H  0.61545462  0.79032011  0.63246410     0.33800
H542        H  0.56664206  0.79978747  0.60760111     0.38300
H543        H  0.39314313  0.71453065  0.74196428     0.33800
H544        H  0.44320339  0.70632409  0.76599140     0.30500
H545        H  0.63425508  0.72480660  0.76864927     0.33800
H546        H  0.58959027  0.71295612  0.74570977     0.30500
H547        H  0.43301425  0.79703896  0.86984447     0.38300
H548        H  0.38958342  0.78393605  0.84695341     0.33800
C549        C  0.48933481  0.74634411  0.14945017    -0.19900
C550        C  0.53786712  0.75465961  0.15855463     0.36300
C551        C  0.53966968  0.75381387  0.19851265    -0.25900
C552        C  0.49408911  0.74515118  0.22950284     0.02700
C553        C  0.44528788  0.73759359  0.22047982     0.27500
C554        C  0.44339160  0.73836812  0.18061624    -0.25000
N555        N  0.58485121  0.76430274  0.12740159    -0.82400
H556        H  0.57669463  0.76024702  0.20560912     0.13300
C557        C  0.49800917  0.74437152  0.27126016     0.02700
N558        N  0.39810888  0.72873105  0.25186055    -0.81000
H559        H  0.40601953  0.73202431  0.17395341     0.18200
C560        C  0.46125426  0.76161484  0.29610600    -0.25800
C561        C  0.46363555  0.76159190  0.33577032     0.36200
C562        C  0.50520100  0.74477161  0.35047042    -0.19900
C563        C  0.54211575  0.72759827  0.32544198    -0.25100
C564        C  0.53825576  0.72675461  0.28624302     0.27600
H565        H  0.43057641  0.77523561  0.28439515     0.13300
N566        N  0.42521085  0.77946647  0.36053585    -0.82400
H567        H  0.57367124  0.71445604  0.33668885     0.18200
N568        N  0.57466841  0.70790378  0.26166200    -0.81000
H569        H  0.40061346  0.79241909  0.34406649     0.33800
H570        H  0.39888077  0.76457793  0.38171054     0.38300
H571        H  0.60187754  0.69638081  0.27712080     0.33800
H572        H  0.55110358  0.69150063  0.25536457     0.30500
H573        H  0.36538140  0.72411268  0.24020240     0.33800
H574        H  0.40782302  0.70856510  0.26808708     0.30500
H575        H  0.57447810  0.78460577  0.11179874     0.38300
H576        H  0.61728216  0.76907683  0.13927586     0.33800
C577        C  0.14511949  0.92206259  0.50076802    -0.19900
C578        C  0.17636588  0.91277404  0.46516977     0.36300
C579        C  0.21814916  0.89127668  0.46701409    -0.25900
C580        C  0.22867109  0.87802567  0.50350300     0.02700
C581        C  0.19622037  0.88678902  0.53923114     0.27500
C582        C  0.15596880  0.90920886  0.53717763    -0.25000
N583        N  0.16658383  0.92429801  0.42682877    -0.82400
H584        H  0.24241248  0.88458964  0.43957953     0.13300
C585        C  0.27282265  0.85477138  0.50315390     0.02700
N586        N  0.20162449  0.87308665  0.57803448    -0.81000
H587        H  0.13177562  0.91614508  0.56448056     0.18200
C588        C  0.31702431  0.85922440  0.51958835    -0.25800
C589        C  0.35749612  0.83678089  0.52184924     0.36200
C590        C  0.35535470  0.81017798  0.50525786    -0.19900
C591        C  0.31262529  0.80635980  0.48718570    -0.25100
C592        C  0.27055744  0.82799693  0.48691675     0.27600
H593        H  0.31883148  0.87985823  0.53186491     0.13300
N594        N  0.40012152  0.84059911  0.54151979    -0.82400
H595        H  0.31031438  0.78554477  0.47541267     0.18200
N596        N  0.22450073  0.82242812  0.47155083    -0.81000
H597        H  0.39547635  0.86122217  0.55256803     0.33800
H598        H  0.43719218  0.84148057  0.52022915     0.38300
H599        H  0.22882528  0.80160456  0.46103027     0.33800
H600        H  0.18998500  0.82084115  0.49524236     0.30500
H601        H  0.16398524  0.86359050  0.59324196     0.33800
H602        H  0.22933033  0.85510914  0.57656953     0.30500
H603        H  0.13353343  0.93930872  0.42892091     0.38300
H604        H  0.20102713  0.93644156  0.41037399     0.33800
C605        C  0.86588432  0.92184247  0.50826440    -0.19900
C606        C  0.81486302  0.91961485  0.53584230     0.36300
C607        C  0.77626515  0.89889435  0.53319122    -0.25900
C608        C  0.78787344  0.87997074  0.50368096     0.02700
C609        C  0.83992783  0.88131108  0.47685832     0.27500
C610        C  0.87784868  0.90251427  0.47918671    -0.25000
N611        N  0.80203156  0.93857569  0.56637803    -0.82400
H612        H  0.73667777  0.89785939  0.55395451     0.13300
C613        C  0.74430112  0.85996086  0.50061419     0.02700
N614        N  0.85580346  0.86168261  0.44698890    -0.81000
H615        H  0.91704497  0.90401699  0.45794547     0.18200
C616        C  0.71874372  0.86698342  0.46892049    -0.25800
C617        C  0.67855663  0.84811854  0.46401783     0.36200
C618        C  0.66343760  0.82180671  0.49168323    -0.19900
C619        C  0.68762373  0.81542753  0.52423706    -0.25100
C620        C  0.72828065  0.83416575  0.52881552     0.27600
H621        H  0.73067063  0.88715091  0.44775223     0.13300
N622        N  0.65176409  0.85617556  0.43193855    -0.82400
H623        H  0.67582611  0.79529743  0.54550746     0.18200
N624        N  0.75381379  0.82699201  0.56165958    -0.81000
H625        H  0.66445921  0.87740575  0.41641021     0.33800
H626        H  0.66459243  0.84087032  0.41173265     0.38300
H627        H  0.73719947  0.80736329  0.57984252     0.33800
H628        H  0.79499013  0.82227193  0.55004027     0.30500
H629        H  0.88925941  0.84883995  0.45301485     0.33800
H630        H  0.82535493  0.84627232  0.44851312     0.30500
H631        H  0.79272231  0.92472179  0.59386084     0.38300
H632        H  0.76706842  0.95119357  0.56321030     0.33800
C633        C  0.85616866  0.57804034  0.50687067    -0.19900
C634        C  0.86254540  0.60357721  0.47690872     0.36300
C635        C  0.82163460  0.62588964  0.47886919    -0.25900
C636        C  0.77347705  0.62299831  0.50897137     0.02700
C637        C  0.76578427  0.59702410  0.53783658     0.27500
C638        C  0.80770132  0.57508872  0.53691734    -0.25000
N639        N  0.90864633  0.60715990  0.44330051    -0.82400
H640        H  0.82674409  0.64534192  0.45588362     0.13300
C641        C  0.72999331  0.64627522  0.50725718     0.02700
N642        N  0.71467403  0.59233198  0.56672948    -0.81000
H643        H  0.80235597  0.55533019  0.55941677     0.18200
C644        C  0.69792360  0.64561557  0.47977015    -0.25800
C645        C  0.66024706  0.66887733  0.47360710     0.36200
C646        C  0.65396695  0.69317568  0.49580822    -0.19900
C647        C  0.68500543  0.69340061  0.52419876    -0.25100
C648        C  0.72375718  0.67044679  0.52964661     0.27600
H649        H  0.70337279  0.62717707  0.46234127     0.13300
N650        N  0.62866611  0.66807696  0.44461539    -0.82400
H651        H  0.68083688  0.71228729  0.54078537     0.18200
N652        N  0.75890248  0.67254330  0.55596515    -0.81000
H653        H  0.63848060  0.64886594  0.43058075     0.33800
H654        H  0.58762176  0.66617104  0.45978747     0.38300
H655        H  0.75047430  0.69229857  0.56895439     0.33800
H656        H  0.75008024  0.65465064  0.57920079     0.30500
H657        H  0.71502508  0.57157801  0.58484545     0.33800
H658        H  0.71022962  0.60886201  0.58535688     0.30500
H659        H  0.93429705  0.58824915  0.44243813     0.38300
H660        H  0.93131019  0.62538369  0.44593455     0.33800
C661        C  0.13461579  0.57757724  0.49715021    -0.19900
C662        C  0.16372860  0.57650843  0.52724478     0.36300
C663        C  0.20191243  0.59890668  0.52438639    -0.25900
C664        C  0.21045064  0.62313843  0.49320608     0.02700
C665        C  0.18086532  0.62453356  0.46348878     0.27500
C666        C  0.14382711  0.60145357  0.46545419    -0.25000
N667        N  0.15438851  0.55381756  0.56178063    -0.82400
H668        H  0.22436267  0.59776093  0.54738714     0.13300
C669        C  0.24909630  0.64722149  0.49345269     0.02700
N670        N  0.18755047  0.64967875  0.43208567    -0.81000
H671        H  0.12114395  0.60232936  0.44263549     0.18200
C672        C  0.29410884  0.65408918  0.46124183    -0.25800
C673        C  0.33405986  0.67470468  0.46257389     0.36200
C674        C  0.32971043  0.68799131  0.49756410    -0.19900
C675        C  0.28286296  0.68215216  0.52874677    -0.25100
C676        C  0.24246105  0.66229477  0.52685845     0.27600
H677        H  0.29864839  0.64284600  0.43529487     0.13300
N678        N  0.37896321  0.68183930  0.42871567    -0.82400
H679        H  0.27794695  0.69266932  0.55530561     0.18200
N680        N  0.19479263  0.65705414  0.55903291    -0.81000
H681        H  0.37647134  0.66970571  0.40592069     0.33800
H682        H  0.37515333  0.70463057  0.41764493     0.38300
H683        H  0.19608243  0.66974427  0.58153488     0.33800
H684        H  0.16091339  0.66481303  0.54795891     0.30500
H685        H  0.16268812  0.64730779  0.41275473     0.33800
H686        H  0.17381654  0.66902879  0.44504173     0.30500
H687        H  0.12274031  0.53938479  0.56259589     0.38300
H688        H  0.18988551  0.54065027  0.56035112     0.33800
C689        C  0.34199217  0.80238846  0.01160954    -0.19900
C690        C  0.32572527  0.82027766  0.04249401     0.36300
C691        C  0.28630377  0.84324461  0.03981493    -0.25900
C692        C  0.26225017  0.84861121  0.00713605     0.02700
C693        C  0.27863624  0.83076899  0.97618259     0.27500
C694        C  0.31889772  0.80817764  0.97847179    -0.25000
N695        N  0.34977720  0.81528272  0.07626124    -0.82400
H696        H  0.27452027  0.85722842  0.06323970     0.13300
C697        C  0.22070475  0.87328732  0.00541232     0.02700
N698        N  0.25348391  0.83524423  0.94296039    -0.81000
H699        H  0.33091319  0.79428892  0.95493952     0.18200
C700        C  0.22877816  0.89591127  0.97220439    -0.25800
C701        C  0.19056795  0.91946817  0.96914912     0.36200
C702        C  0.14328509  0.92052472  0.00007455    -0.19900
C703        C  0.13537012  0.89818789  0.03352471    -0.25100
C704        C  0.17347314  0.87453629  0.03651773     0.27600
H705        H  0.26526430  0.89521671  0.94856900     0.13300
N706        N  0.19879686  0.94177179  0.93425053    -0.82400
H707        H  0.09890947  0.89908858  0.05714834     0.18200
N708        N  0.16404498  0.85160505  0.07075186    -0.81000
H709        H  0.23414935  0.93685083  0.91347269     0.33800
H710        H  0.20568590  0.96242195  0.94255613     0.38300
H711        H  0.12770183  0.85593219  0.09095778     0.33800
H712        H  0.15887969  0.83116724  0.06115600     0.30500
H713        H  0.27002871  0.82033154  0.92281590     0.33800
H714        H  0.21219767  0.82987260  0.95379592     0.30500
H715        H  0.39129783  0.82026737  0.06604623     0.38300
H716        H  0.33320469  0.83019995  0.09639324     0.33800
C717        C  0.66083240  0.81788836  0.00708206    -0.19900
C718        C  0.71629071  0.80914512  0.00060566     0.36300
C719        C  0.75528031  0.82979652  0.00282992    -0.25900
C720        C  0.73972943  0.85898410  0.01105789     0.02700
C721        C  0.68407434  0.86741537  0.01894812     0.27500
C722        C  0.64488942  0.84662582  0.01708410    -0.25000
N723        N  0.73275480  0.77956279  0.99075447    -0.82400
H724        H  0.79813338  0.82349180  0.99692228     0.13300
C725        C  0.78263738  0.88096779  0.00901988     0.02700
N726        N  0.66796815  0.89727993  0.02770836    -0.81000
H727        H  0.60224469  0.85324961  0.02170271     0.18200
C728        C  0.79709821  0.90263087  0.97514550    -0.25800
C729        C  0.83878683  0.92327002  0.97117293     0.36200
C730        C  0.86583283  0.92262629  0.00240536    -0.19900
C731        C  0.85164957  0.90070635  0.03615086    -0.25100
C732        C  0.81046165  0.87967624  0.03962433     0.27600
H733        H  0.77640036  0.90313366  0.95125123     0.13300
N734        N  0.85330318  0.94390942  0.93476418    -0.82400
H735        H  0.87256741  0.90021918  0.05991046     0.18200
N736        N  0.79675132  0.85699324  0.07395147    -0.81000
H737        H  0.82023001  0.95862154  0.93347600     0.33800
H738        H  0.88679174  0.95706892  0.93377660     0.38300
H739        H  0.82137471  0.85892914  0.09359007     0.33800
H740        H  0.75661109  0.86112033  0.08893873     0.30500
H741        H  0.62562996  0.90000142  0.03240933     0.33800
H742        H  0.67782815  0.89952159  0.05449367     0.30500
H743        H  0.71498371  0.76385087  0.01518330     0.38300
H744        H  0.77502150  0.77673776  0.98655285     0.33800
C745        C  0.66177680  0.69579620  0.98888804    -0.19900
C746        C  0.65006266  0.67032378  0.01863366     0.36300
C747        C  0.69028485  0.64770127  0.02095832    -0.25900
C748        C  0.74166263  0.65009302  0.99425370     0.02700
C749        C  0.75387602  0.67583406  0.96542604     0.27500
C750        C  0.71370757  0.69816708  0.96270312    -0.25000
N751        N  0.59731301  0.66718251  0.04578000    -0.82400
H752        H  0.68122787  0.62780396  0.04306784     0.13300
C753        C  0.78176978  0.62495966  0.99519949     0.02700
N754        N  0.80732768  0.67924213  0.93923669    -0.81000
H755        H  0.72350003  0.71790729  0.94041249     0.18200
C756        C  0.79712502  0.60949810  0.96218325    -0.25800
C757        C  0.83631770  0.58632125  0.96071703     0.36200
C758        C  0.86086789  0.57839883  0.99325073    -0.19900
C759        C  0.84515853  0.59365682  0.02647891    -0.25100
C760        C  0.80590328  0.61700412  0.02773146     0.27600
H761        H  0.77870107  0.61571417  0.93709861     0.13300
N762        N  0.85086957  0.57197254  0.92547919    -0.82400
H763        H  0.86419858  0.58752063  0.05125131     0.18200
N764        N  0.79116817  0.63300245  0.06146152    -0.81000
H765        H  0.81631570  0.56083743  0.92348270     0.33800
H766        H  0.88125456  0.55557112  0.92697756     0.38300
H767        H  0.81258555  0.62430323  0.08287587     0.33800
H768        H  0.80359338  0.65535536  0.05177395     0.30500
H769        H  0.80973232  0.69943252  0.91963175     0.33800
H770        H  0.83509197  0.68091121  0.95670477     0.30500
H771        H  0.56873066  0.66479430  0.02922108     0.38300
H772        H  0.59578007  0.64741281  0.06607556     0.33800
C773        C  0.14059353  0.57737909  0.98089002    -0.19900
C774        C  0.19203921  0.57648742  0.95395163     0.36300
C775        C  0.23275949  0.59681842  0.95427980    -0.25900
C776        C  0.22239144  0.61855794  0.98010243     0.02700
C777        C  0.17017899  0.62058577  0.00550155     0.27500
C778        C  0.12994994  0.59973416  0.00598491    -0.25000
N779        N  0.20281305  0.55461173  0.92685188    -0.82400
H780        H  0.27291068  0.59554268  0.93468535     0.13300
C781        C  0.26744073  0.63785280  0.98220536     0.02700
N782        N  0.15837482  0.64376335  0.03071784    -0.81000
H783        H  0.09039189  0.60055060  0.02647570     0.18200
C784        C  0.27647885  0.66593787  0.95805806    -0.25800
C785        C  0.31685408  0.68549104  0.96141424     0.36200
C786        C  0.34777435  0.67682652  0.99009481    -0.19900
C787        C  0.33965261  0.64827959  0.01326811    -0.25100
C788        C  0.30010447  0.62860441  0.00939049     0.27600
H789        H  0.25130895  0.67277671  0.93709146     0.13300
N790        N  0.32442883  0.71463904  0.93741855    -0.82400
H791        H  0.36373621  0.64153349  0.03499165     0.18200
N792        N  0.29268927  0.59932183  0.03308665    -0.81000
H793        H  0.29641066  0.71809094  0.91944711     0.33800
H794        H  0.36307224  0.71465110  0.91809408     0.38300
H795        H  0.32067285  0.59576292  0.05107870     0.33800
H796        H  0.25391169  0.59894324  0.05226476     0.30500
H797        H  0.11776043  0.64254407  0.04695377     0.33800
H798        H  0.18251732  0.63964508  0.05142999     0.30500
H799        H  0.17666929  0.55946435  0.90758912     0.38300
H800        H  0.24262862  0.55677069  0.90925064     0.33800
loop_ 
_geom_bond_atom_site_label_1 
_geom_bond_atom_site_label_2 
_geom_bond_distance 
_geom_bond_site_symmetry_2 
_ccdc_geom_bond_type 
N1           H33   1.040       .  S
N1            C5   1.355   1_556  A
N1          C406   1.354       .  A
N2            C9   1.351       .  A
N2           C10   1.352   1_455  A
N3           H34   1.038   1_565  S
N3            C8   1.353   1_566  A
N3          C407   1.352   1_556  A
N4           C11   1.352       .  A
N4           C12   1.351   1_455  A
C5           C13   1.386       .  A
C5           C21   1.416   1_554  A
C6          N401   1.354   1_545  A
C6           C22   1.418       .  A
C6           C14   1.387   1_556  A
C7          N403   1.352   1_554  A
C7           C15   1.387       .  A
C7           C24   1.415       .  A
C8           C23   1.415   1_554  A
C8           C16   1.387       .  A
C9           C21   1.413       .  A
C9           C17   1.386       .  A
C10          C24   1.413   1_556  A
C10          C18   1.386       .  A
C11          C19   1.387       .  A
C11          C22   1.414       .  A
C12          C20   1.386       .  A
C12          C23   1.413       .  A
C13         C414   1.376       .  A
C13          H25   1.082       .  S
C14         C413   1.376   1_545  A
C14          H26   1.082       .  S
C15         C416   1.376       .  A
C15          H27   1.082       .  S
C16         C415   1.376   1_545  A
C16          H28   1.082       .  S
C17          C18   1.374   1_455  A
C17          H29   1.082       .  S
C18          H30   1.082       .  S
C19          C20   1.374   1_455  A
C19          H31   1.082       .  S
C20          H32   1.082       .  S
C21         C302   1.493   1_556  S
C22         C373   1.496       .  S
C23         C358   1.486       .  S
C24         C330   1.487       .  S
N35          H67   1.038       .  S
N35          C39   1.353       .  A
N35         C440   1.353       .  A
N36          C43   1.353       .  A
N36          C44   1.353   1_455  A
N37          H68   1.040       .  S
N37          C42   1.355   1_565  A
N37         C441   1.354       .  A
N38          C45   1.351   1_655  A
N38          C46   1.351       .  A
C39          C47   1.388       .  A
C39          C55   1.416       .  A
C40         N435   1.353   1_545  A
C40          C56   1.416       .  A
C40          C48   1.387       .  A
C41         N437   1.354       .  A
C41          C49   1.388       .  A
C41          C58   1.419       .  A
C42          C57   1.417       .  A
C42          C50   1.386       .  A
C43          C55   1.416       .  A
C43          C51   1.386       .  A
C44          C58   1.417       .  A
C44          C52   1.387       .  A
C45          C53   1.386       .  A
C45          C56   1.413       .  A
C46          C54   1.386       .  A
C46          C57   1.413       .  A
C47         C448   1.376       .  A
C47          H59   1.082       .  S
C48         C447   1.376   1_545  A
C48          H60   1.082       .  S
C49         C450   1.375       .  A
C49          H61   1.082       .  S
C50         C449   1.375   1_545  A
C50          H62   1.082       .  S
C51          C52   1.374   1_455  A
C51          H63   1.082       .  S
C52          H64   1.082       .  S
C53          C54   1.373   1_455  A
C53          H65   1.082       .  S
C54          H66   1.082       .  S
C55         C177   1.490       .  S
C56         C261   1.490       .  S
C57         C233   1.496       .  S
C58         C205   1.496       .  S
O69         Ni75   1.932       .  S
O69          C90   1.273       .  A
O70         Ni93   1.900       .  S
O70          C79   1.267       .  A
O71         Ni75   1.908       .  S
O71         Ni93   1.907   1_554  S
O71         Ni87   1.912       .  S
O71          H94   0.967       .  S
C72         C317   1.471   1_556  S
C72          O89   1.275   1_556  A
C72          O81   1.274       .  A
O73         Ni92   1.926       .  S
O73          C79   1.271       .  A
O74         Ni92   1.902       .  S
O74          C76   1.268       .  A
Ni75         O78   1.925       .  S
Ni75         O80   1.910       .  S
C76         C345   1.485       .  S
C76          O86   1.272   1_556  A
O77         Ni93   1.922       .  S
O77          C83   1.275       .  A
O78          C83   1.276   1_554  A
C79         C121   1.483       .  S
O80          C82   1.269       .  A
O81         Ni92   1.920       .  S
C82         C289   1.486       .  S
C82          O88   1.274   1_554  A
C83         C386   1.481       .  S
H84          O85   0.966       .  S
O85         Ni93   1.912       .  S
O85         Ni87   1.904   1_556  S
O85         Ni92   1.911       .  S
O86         Ni87   1.932       .  S
Ni87         O91   1.900       .  S
Ni87         O89   1.922       .  S
O88         Ni93   1.934       .  S
C90         C149   1.484       .  S
C90          O91   1.266       .  A
O95        Ni101   1.918       .  S
O95         C116   1.271       .  A
O96        Ni119   1.895       .  S
O96         C105   1.263       .  A
O97        Ni101   1.919       .  S
O97        Ni119   1.912       .  S
O97        Ni113   1.930       .  S
O97         H120   0.966       .  S
C98         C218   1.479       .  S
C98         O115   1.274       .  A
C98         O107   1.276       .  A
O99        Ni118   1.936       .  S
O99         C105   1.272       .  A
O100       Ni118   1.911       .  S
O100        C102   1.269       .  A
Ni101       O104   1.939       .  S
Ni101       O106   1.900       .  S
C102        C246   1.485       .  S
C102        O112   1.273       .  A
O103       Ni119   1.907       .  S
O103        C109   1.267       .  A
O104        C109   1.274       .  A
C105        C162   1.481       .  S
O106        C108   1.267       .  A
O107       Ni118   1.929       .  S
C108        C190   1.477       .  S
C108        O114   1.278       .  A
C109        C274   1.496       .  S
H110        O111   0.967       .  S
O111       Ni119   1.901       .  S
O111       Ni113   1.907       .  S
O111       Ni118   1.919       .  S
O112       Ni113   1.936       .  S
Ni113       O117   1.903       .  S
Ni113       O115   1.914       .  S
O114       Ni119   1.953       .  S
C116        C134   1.484       .  S
C116        O117   1.267       .  A
C121        C122   1.414       .  A
C121        C126   1.408       .  A
C122        C123   1.403       .  A
C122        N127   1.438       .  S
C123        C124   1.403       .  A
C123        H128   1.084       .  S
C124        C125   1.408       .  A
C124        C129   1.483       .  S
C125        C126   1.403       .  A
C125        N130   1.438       .  S
C126        H131   1.083       .  S
N127        H147   1.046       .  S
N127        H148   1.046       .  S
C129        C132   1.405       .  A
C129        C136   1.408       .  A
N130        H145   1.046       .  S
N130        H146   1.046       .  S
C132        C133   1.408       .  A
C132        H137   1.084       .  S
C133        C134   1.416       .  A
C133        N138   1.438       .  S
C134        C135   1.406       .  A
C135        C136   1.398       .  A
C135        H139   1.083       .  S
C136        N140   1.439       .  S
N138        H141   1.046       .  S
N138        H142   1.046       .  S
N140        H143   1.046       .  S
N140        H144   1.046       .  S
C149        C150   1.415       .  A
C149        C154   1.406       .  A
C150        C151   1.405       .  A
C150        N155   1.438       .  S
C151        C152   1.403       .  A
C151        H156   1.084       .  S
C152        C153   1.409       .  A
C152        C157   1.484       .  S
C153        C154   1.403       .  A
C153        N158   1.438       .  S
C154        H159   1.083       .  S
N155        H175   1.046       .  S
N155        H176   1.046       .  S
C157        C160   1.402       .  A
C157        C164   1.410       .  A
N158        H173   1.046       .  S
N158        H174   1.045       .  S
C160        C161   1.404       .  A
C160        H165   1.084       .  S
C161        C162   1.416       .  A
C161        N166   1.438       .  S
C162        C163   1.405       .  A
C163        C164   1.405       .  A
C163        H167   1.084       .  S
C164        N168   1.438       .  S
N166        H169   1.046       .  S
N166        H170   1.045       .  S
N168        H171   1.046       .  S
N168        H172   1.046       .  S
C177        C178   1.415       .  A
C177        C182   1.402       .  A
C178        C179   1.402       .  A
C178        N183   1.438       .  S
C179        C180   1.406       .  A
C179        H184   1.084       .  S
C180        C181   1.420       .  A
C180        C185   1.490       .  S
C181        C182   1.403       .  A
C181        N186   1.440       .  S
C182        H187   1.084       .  S
N183        H203   1.043       .  S
N183        H204   1.045       .  S
C185        C188   1.406       .  A
C185        C192   1.412       .  A
N186        H201   1.046       .  S
N186        H202   1.042       .  S
C188        C189   1.408       .  A
C188        H193   1.084       .  S
C189        C190   1.411       .  A
C189        N194   1.437       .  S
C190        C191   1.403       .  A
C191        C192   1.406       .  A
C191        H195   1.084       .  S
C192        N196   1.438       .  S
N194        H197   1.046       .  S
N194        H198   1.045       .  S
N196        H199   1.046       .  S
N196        H200   1.046       .  S
C205        C206   1.410       .  A
C205        C210   1.404       .  A
C206        C207   1.404       .  A
C206        N211   1.432       .  S
C207        C208   1.403       .  A
C207        H212   1.084       .  S
C208        C209   1.418       .  A
C208        C213   1.483       .  S
C209        C210   1.403       .  A
C209        N214   1.439       .  S
C210        H215   1.084       .  S
N211        H231   1.045       .  S
N211        H232   1.046       .  S
C213        C216   1.402       .  A
C213        C220   1.409       .  A
N214        H229   1.046       .  S
N214        H230   1.043       .  S
C216        C217   1.406       .  A
C216        H221   1.084       .  S
C217        C218   1.413       .  A
C217        N222   1.438       .  S
C218        C219   1.404       .  A
C219        C220   1.407       .  A
C219        H223   1.084       .  S
C220        N224   1.437       .  S
N222        H225   1.046       .  S
N222        H226   1.045       .  S
N224        H227   1.046       .  S
N224        H228   1.046       .  S
C233        C234   1.419       .  A
C233        C238   1.406       .  A
C234        C235   1.401       .  A
C234        N239   1.438       .  S
C235        C236   1.402       .  A
C235        H240   1.084       .  S
C236        C237   1.410       .  A
C236        C241   1.485       .  S
C237        C238   1.409       .  A
C237        N242   1.438       .  S
C238        H243   1.084       .  S
N239        H259   1.043       .  S
N239        H260   1.045       .  S
C241        C244   1.402       .  A
C241        C248   1.412       .  A
N242        H257   1.046       .  S
N242        H258   1.043       .  S
C244        C245   1.407       .  A
C244        H249   1.084       .  S
C245        C246   1.412       .  A
C245        N250   1.438       .  S
C246        C247   1.406       .  A
C247        C248   1.411       .  A
C247        H251   1.084       .  S
C248        N252   1.438       .  S
N250        H253   1.046       .  S
N250        H254   1.046       .  S
N252        H255   1.046       .  S
N252        H256   1.044       .  S
C261        C262   1.416       .  A
C261        C266   1.405       .  A
C262        C263   1.399       .  A
C262        N267   1.439       .  S
C263        C264   1.404       .  A
C263        H268   1.084       .  S
C264        C265   1.411       .  A
C264        C269   1.489       .  S
C265        C266   1.409       .  A
C265        N270   1.437       .  S
C266        H271   1.084       .  S
N267        H287   1.043       .  S
N267        H288   1.045       .  S
C269        C272   1.404       .  A
C269        C276   1.409       .  A
N270        H285   1.046       .  S
N270        H286   1.046       .  S
C272        C273   1.411       .  A
C272        H277   1.084       .  S
C273        C274   1.419       .  A
C273        N278   1.438       .  S
C274        C275   1.408       .  A
C275        C276   1.403       .  A
C275        H279   1.083       .  S
C276        N280   1.438       .  S
N278        H281   1.046       .  S
N278        H282   1.046       .  S
N280        H283   1.045       .  S
N280        H284   1.046       .  S
C289        C290   1.413       .  A
C289        C294   1.404   1_554  A
C290        C291   1.408       .  A
C290        N295   1.438       .  S
C291        C292   1.404       .  A
C291        H296   1.083       .  S
C292        C293   1.414   1_554  A
C292        C297   1.494       .  S
C293        C294   1.409       .  A
C293        N298   1.438       .  S
C294        H299   1.084       .  S
N295        H315   1.046       .  S
N295        H316   1.046       .  S
C297        C300   1.405   1_554  A
C297        C304   1.414       .  A
N298        H313   1.046       .  S
N298        H314   1.046       .  S
C300        C301   1.407       .  A
C300        H305   1.083       .  S
C301        C302   1.411   1_556  A
C301        N306   1.438       .  S
C302        C303   1.403       .  A
C303        C304   1.408       .  A
C303        H307   1.084       .  S
C304        N308   1.438       .  S
N306        H309   1.046       .  S
N306        H310   1.044       .  S
N308        H311   1.046       .  S
N308        H312   1.045       .  S
C317        C318   1.410       .  A
C317        C322   1.402       .  A
C318        C319   1.404       .  A
C318        N323   1.438   1_554  S
C319        C320   1.400       .  A
C319        H324   1.084   1_554  S
C320        C321   1.410       .  A
C320        C325   1.479       .  S
C321        C322   1.408       .  A
C321        N326   1.437       .  S
C322        H327   1.084       .  S
N323        H343   1.046   1_556  S
N323        H344   1.046       .  S
C325        C328   1.401   1_554  A
C325        C332   1.408       .  A
N326        H341   1.046       .  S
N326        H342   1.046       .  S
C328        C329   1.400       .  A
C328        H333   1.084       .  S
C329        C330   1.417   1_556  A
C329        N334   1.439       .  S
C330        C331   1.404       .  A
C331        C332   1.406       .  A
C331        H335   1.084       .  S
C332        N336   1.437       .  S
N334        H337   1.045       .  S
N334        H338   1.043       .  S
N336        H339   1.046       .  S
N336        H340   1.046       .  S
C345        C346   1.415   1_556  A
C345        C350   1.406       .  A
C346        C347   1.410       .  A
C346        N351   1.437       .  S
C347        C348   1.403   1_554  A
C347        H352   1.084       .  S
C348        C349   1.407       .  A
C348        C353   1.482       .  S
C349        C350   1.402       .  A
C349        N354   1.438       .  S
C350        H355   1.084       .  S
N351        H371   1.046       .  S
N351        H372   1.046       .  S
C353        C356   1.403       .  A
C353        C360   1.409   1_556  A
N354        H369   1.046       .  S
N354        H370   1.046       .  S
C356        C357   1.400       .  A
C356        H361   1.084       .  S
C357        C358   1.415       .  A
C357        N362   1.439       .  S
C358        C359   1.404   1_556  A
C359        C360   1.406       .  A
C359        H363   1.084       .  S
C360        N364   1.437       .  S
N362        H365   1.046       .  S
N362        H366   1.043       .  S
N364        H367   1.046       .  S
N364        H368   1.046       .  S
C373        C374   1.413       .  A
C373        C378   1.405   1_556  A
C374        C375   1.407       .  A
C374        N379   1.437       .  S
C375        C376   1.401       .  A
C375        H380   1.084       .  S
C376        C377   1.410   1_556  A
C376        C381   1.481       .  S
C377        C378   1.406       .  A
C377        N382   1.438       .  S
C378        H383   1.084       .  S
N379        H399   1.046       .  S
N379        H400   1.046       .  S
C381        C384   1.403       .  A
C381        C388   1.408   1_556  A
N382        H397   1.046       .  S
N382        H398   1.045       .  S
C384        C385   1.410       .  A
C384        H389   1.084       .  S
C385        C386   1.414       .  A
C385        N390   1.438       .  S
C386        C387   1.404   1_556  A
C387        C388   1.404       .  A
C387        H391   1.084       .  S
C388        N392   1.438       .  S
N390        H393   1.046       .  S
N390        H394   1.045       .  S
N392        H395   1.046       .  S
N392        H396   1.045       .  S
N401        H433   1.040   1_565  S
N401        C405   1.355   1_556  A
N402        C409   1.351       .  A
N402        C410   1.352   1_455  A
N403        H434   1.038       .  S
N403        C408   1.353   1_556  A
N404        C411   1.352       .  A
N404        C412   1.351   1_455  A
C405        C413   1.386       .  A
C405        C421   1.416   1_554  A
C406        C422   1.418       .  A
C406        C414   1.387   1_556  A
C407        C415   1.387       .  A
C407        C424   1.415       .  A
C408        C423   1.415   1_554  A
C408        C416   1.387       .  A
C409        C421   1.413       .  A
C409        C417   1.386       .  A
C410        C424   1.413   1_556  A
C410        C418   1.386       .  A
C411        C419   1.387       .  A
C411        C422   1.414       .  A
C412        C420   1.386       .  A
C412        C423   1.413       .  A
C413        H425   1.082       .  S
C414        H426   1.082       .  S
C415        H427   1.082       .  S
C416        H428   1.082       .  S
C417        C418   1.374   1_455  A
C417        H429   1.082       .  S
C418        H430   1.082       .  S
C419        C420   1.374   1_455  A
C419        H431   1.082       .  S
C420        H432   1.082       .  S
C421        C702   1.493   1_556  S
C422        C773   1.496       .  S
C423        C758   1.486       .  S
C424        C730   1.487       .  S
N435        H467   1.038       .  S
N435        C439   1.353       .  A
N436        C443   1.353       .  A
N436        C444   1.353   1_455  A
N437        H468   1.040       .  S
N437        C442   1.355       .  A
N438        C445   1.351   1_655  A
N438        C446   1.351       .  A
C439        C447   1.388       .  A
C439        C455   1.416       .  A
C440        C456   1.416       .  A
C440        C448   1.387       .  A
C441        C449   1.388       .  A
C441        C458   1.419       .  A
C442        C457   1.417       .  A
C442        C450   1.386       .  A
C443        C455   1.416       .  A
C443        C451   1.386       .  A
C444        C458   1.417       .  A
C444        C452   1.387       .  A
C445        C453   1.386       .  A
C445        C456   1.413       .  A
C446        C454   1.386       .  A
C446        C457   1.413       .  A
C447        H459   1.082       .  S
C448        H460   1.082       .  S
C449        H461   1.082       .  S
C450        H462   1.082       .  S
C451        C452   1.374   1_455  A
C451        H463   1.082       .  S
C452        H464   1.082       .  S
C453        C454   1.373   1_455  A
C453        H465   1.082       .  S
C454        H466   1.082       .  S
C455        C577   1.490       .  S
C456        C661   1.490       .  S
C457        C633   1.496       .  S
C458        C605   1.496       .  S
O469       Ni475   1.932       .  S
O469        C490   1.273       .  A
O470       Ni493   1.900       .  S
O470        C479   1.267       .  A
O471       Ni475   1.908       .  S
O471       Ni493   1.907   1_554  S
O471       Ni487   1.912       .  S
O471        H494   0.967       .  S
C472        C717   1.471   1_556  S
C472        O489   1.275   1_556  A
C472        O481   1.274       .  A
O473       Ni492   1.926       .  S
O473        C479   1.271       .  A
O474       Ni492   1.902       .  S
O474        C476   1.268       .  A
Ni475       O478   1.925       .  S
Ni475       O480   1.910       .  S
C476        C745   1.485       .  S
C476        O486   1.272   1_556  A
O477       Ni493   1.922       .  S
O477        C483   1.275       .  A
O478        C483   1.276   1_554  A
C479        C521   1.483       .  S
O480        C482   1.269       .  A
O481       Ni492   1.920       .  S
C482        C689   1.486       .  S
C482        O488   1.274   1_554  A
C483        C786   1.481       .  S
H484        O485   0.966       .  S
O485       Ni493   1.912       .  S
O485       Ni487   1.904   1_556  S
O485       Ni492   1.911       .  S
O486       Ni487   1.932       .  S
Ni487       O491   1.900       .  S
Ni487       O489   1.922       .  S
O488       Ni493   1.934       .  S
C490        C549   1.484       .  S
C490        O491   1.266       .  A
O495       Ni501   1.918       .  S
O495        C516   1.271       .  A
O496       Ni519   1.895       .  S
O496        C505   1.263       .  A
O497       Ni501   1.919       .  S
O497       Ni519   1.912       .  S
O497       Ni513   1.930       .  S
O497        H520   0.966       .  S
C498        C618   1.479       .  S
C498        O515   1.274       .  A
C498        O507   1.276       .  A
O499       Ni518   1.936       .  S
O499        C505   1.272       .  A
O500       Ni518   1.911       .  S
O500        C502   1.269       .  A
Ni501       O504   1.939       .  S
Ni501       O506   1.900       .  S
C502        C646   1.485       .  S
C502        O512   1.273       .  A
O503       Ni519   1.907       .  S
O503        C509   1.267       .  A
O504        C509   1.274       .  A
C505        C562   1.481       .  S
O506        C508   1.267       .  A
O507       Ni518   1.929       .  S
C508        C590   1.477       .  S
C508        O514   1.278       .  A
C509        C674   1.496       .  S
H510        O511   0.967       .  S
O511       Ni519   1.901       .  S
O511       Ni513   1.907       .  S
O511       Ni518   1.919       .  S
O512       Ni513   1.936       .  S
Ni513       O517   1.903       .  S
Ni513       O515   1.914       .  S
O514       Ni519   1.953       .  S
C516        C534   1.484       .  S
C516        O517   1.267       .  A
C521        C522   1.414       .  A
C521        C526   1.408       .  A
C522        C523   1.403       .  A
C522        N527   1.438       .  S
C523        C524   1.403       .  A
C523        H528   1.084       .  S
C524        C525   1.408       .  A
C524        C529   1.483       .  S
C525        C526   1.403       .  A
C525        N530   1.438       .  S
C526        H531   1.083       .  S
N527        H547   1.046       .  S
N527        H548   1.046       .  S
C529        C532   1.405       .  A
C529        C536   1.408       .  A
N530        H545   1.046       .  S
N530        H546   1.046       .  S
C532        C533   1.408       .  A
C532        H537   1.084       .  S
C533        C534   1.416       .  A
C533        N538   1.438       .  S
C534        C535   1.406       .  A
C535        C536   1.398       .  A
C535        H539   1.083       .  S
C536        N540   1.439       .  S
N538        H541   1.046       .  S
N538        H542   1.046       .  S
N540        H543   1.046       .  S
N540        H544   1.046       .  S
C549        C550   1.415       .  A
C549        C554   1.406       .  A
C550        C551   1.405       .  A
C550        N555   1.438       .  S
C551        C552   1.403       .  A
C551        H556   1.084       .  S
C552        C553   1.409       .  A
C552        C557   1.484       .  S
C553        C554   1.403       .  A
C553        N558   1.438       .  S
C554        H559   1.083       .  S
N555        H575   1.046       .  S
N555        H576   1.046       .  S
C557        C560   1.402       .  A
C557        C564   1.410       .  A
N558        H573   1.046       .  S
N558        H574   1.045       .  S
C560        C561   1.404       .  A
C560        H565   1.084       .  S
C561        C562   1.416       .  A
C561        N566   1.438       .  S
C562        C563   1.405       .  A
C563        C564   1.405       .  A
C563        H567   1.084       .  S
C564        N568   1.438       .  S
N566        H569   1.046       .  S
N566        H570   1.045       .  S
N568        H571   1.046       .  S
N568        H572   1.046       .  S
C577        C578   1.415       .  A
C577        C582   1.402       .  A
C578        C579   1.402       .  A
C578        N583   1.438       .  S
C579        C580   1.406       .  A
C579        H584   1.084       .  S
C580        C581   1.420       .  A
C580        C585   1.490       .  S
C581        C582   1.403       .  A
C581        N586   1.440       .  S
C582        H587   1.084       .  S
N583        H603   1.043       .  S
N583        H604   1.045       .  S
C585        C588   1.406       .  A
C585        C592   1.412       .  A
N586        H601   1.046       .  S
N586        H602   1.042       .  S
C588        C589   1.408       .  A
C588        H593   1.084       .  S
C589        C590   1.411       .  A
C589        N594   1.437       .  S
C590        C591   1.403       .  A
C591        C592   1.406       .  A
C591        H595   1.084       .  S
C592        N596   1.438       .  S
N594        H597   1.046       .  S
N594        H598   1.045       .  S
N596        H599   1.046       .  S
N596        H600   1.046       .  S
C605        C606   1.410       .  A
C605        C610   1.404       .  A
C606        C607   1.404       .  A
C606        N611   1.432       .  S
C607        C608   1.403       .  A
C607        H612   1.084       .  S
C608        C609   1.418       .  A
C608        C613   1.483       .  S
C609        C610   1.403       .  A
C609        N614   1.439       .  S
C610        H615   1.084       .  S
N611        H631   1.045       .  S
N611        H632   1.046       .  S
C613        C616   1.402       .  A
C613        C620   1.409       .  A
N614        H629   1.046       .  S
N614        H630   1.043       .  S
C616        C617   1.406       .  A
C616        H621   1.084       .  S
C617        C618   1.413       .  A
C617        N622   1.438       .  S
C618        C619   1.404       .  A
C619        C620   1.407       .  A
C619        H623   1.084       .  S
C620        N624   1.437       .  S
N622        H625   1.046       .  S
N622        H626   1.045       .  S
N624        H627   1.046       .  S
N624        H628   1.046       .  S
C633        C634   1.419       .  A
C633        C638   1.406       .  A
C634        C635   1.401       .  A
C634        N639   1.438       .  S
C635        C636   1.402       .  A
C635        H640   1.084       .  S
C636        C637   1.410       .  A
C636        C641   1.485       .  S
C637        C638   1.409       .  A
C637        N642   1.438       .  S
C638        H643   1.084       .  S
N639        H659   1.043       .  S
N639        H660   1.045       .  S
C641        C644   1.402       .  A
C641        C648   1.412       .  A
N642        H657   1.046       .  S
N642        H658   1.043       .  S
C644        C645   1.407       .  A
C644        H649   1.084       .  S
C645        C646   1.412       .  A
C645        N650   1.438       .  S
C646        C647   1.406       .  A
C647        C648   1.411       .  A
C647        H651   1.084       .  S
C648        N652   1.438       .  S
N650        H653   1.046       .  S
N650        H654   1.046       .  S
N652        H655   1.046       .  S
N652        H656   1.044       .  S
C661        C662   1.416       .  A
C661        C666   1.405       .  A
C662        C663   1.399       .  A
C662        N667   1.439       .  S
C663        C664   1.404       .  A
C663        H668   1.084       .  S
C664        C665   1.411       .  A
C664        C669   1.489       .  S
C665        C666   1.409       .  A
C665        N670   1.437       .  S
C666        H671   1.084       .  S
N667        H687   1.043       .  S
N667        H688   1.045       .  S
C669        C672   1.404       .  A
C669        C676   1.409       .  A
N670        H685   1.046       .  S
N670        H686   1.046       .  S
C672        C673   1.411       .  A
C672        H677   1.084       .  S
C673        C674   1.419       .  A
C673        N678   1.438       .  S
C674        C675   1.408       .  A
C675        C676   1.403       .  A
C675        H679   1.083       .  S
C676        N680   1.438       .  S
N678        H681   1.046       .  S
N678        H682   1.046       .  S
N680        H683   1.045       .  S
N680        H684   1.046       .  S
C689        C690   1.413       .  A
C689        C694   1.404   1_554  A
C690        C691   1.408       .  A
C690        N695   1.438       .  S
C691        C692   1.404       .  A
C691        H696   1.083       .  S
C692        C693   1.414   1_554  A
C692        C697   1.494       .  S
C693        C694   1.409       .  A
C693        N698   1.438       .  S
C694        H699   1.084       .  S
N695        H715   1.046       .  S
N695        H716   1.046       .  S
C697        C700   1.405   1_554  A
C697        C704   1.414       .  A
N698        H713   1.046       .  S
N698        H714   1.046       .  S
C700        C701   1.407       .  A
C700        H705   1.083       .  S
C701        C702   1.411   1_556  A
C701        N706   1.438       .  S
C702        C703   1.403       .  A
C703        C704   1.408       .  A
C703        H707   1.084       .  S
C704        N708   1.438       .  S
N706        H709   1.046       .  S
N706        H710   1.044       .  S
N708        H711   1.046       .  S
N708        H712   1.045       .  S
C717        C718   1.410       .  A
C717        C722   1.402       .  A
C718        C719   1.404       .  A
C718        N723   1.438   1_554  S
C719        C720   1.400       .  A
C719        H724   1.084   1_554  S
C720        C721   1.410       .  A
C720        C725   1.479       .  S
C721        C722   1.408       .  A
C721        N726   1.437       .  S
C722        H727   1.084       .  S
N723        H743   1.046   1_556  S
N723        H744   1.046       .  S
C725        C728   1.401   1_554  A
C725        C732   1.408       .  A
N726        H741   1.046       .  S
N726        H742   1.046       .  S
C728        C729   1.400       .  A
C728        H733   1.084       .  S
C729        C730   1.417   1_556  A
C729        N734   1.439       .  S
C730        C731   1.404       .  A
C731        C732   1.406       .  A
C731        H735   1.084       .  S
C732        N736   1.437       .  S
N734        H737   1.045       .  S
N734        H738   1.043       .  S
N736        H739   1.046       .  S
N736        H740   1.046       .  S
C745        C746   1.415   1_556  A
C745        C750   1.406       .  A
C746        C747   1.410       .  A
C746        N751   1.437       .  S
C747        C748   1.403   1_554  A
C747        H752   1.084       .  S
C748        C749   1.407       .  A
C748        C753   1.482       .  S
C749        C750   1.402       .  A
C749        N754   1.438       .  S
C750        H755   1.084       .  S
N751        H771   1.046       .  S
N751        H772   1.046       .  S
C753        C756   1.403       .  A
C753        C760   1.409   1_556  A
N754        H769   1.046       .  S
N754        H770   1.046       .  S
C756        C757   1.400       .  A
C756        H761   1.084       .  S
C757        C758   1.415       .  A
C757        N762   1.439       .  S
C758        C759   1.404   1_556  A
C759        C760   1.406       .  A
C759        H763   1.084       .  S
C760        N764   1.437       .  S
N762        H765   1.046       .  S
N762        H766   1.043       .  S
N764        H767   1.046       .  S
N764        H768   1.046       .  S
C773        C774   1.413       .  A
C773        C778   1.405   1_556  A
C774        C775   1.407       .  A
C774        N779   1.437       .  S
C775        C776   1.401       .  A
C775        H780   1.084       .  S
C776        C777   1.410   1_556  A
C776        C781   1.481       .  S
C777        C778   1.406       .  A
C777        N782   1.438       .  S
C778        H783   1.084       .  S
N779        H799   1.046       .  S
N779        H800   1.046       .  S
C781        C784   1.403       .  A
C781        C788   1.408   1_556  A
N782        H797   1.046       .  S
N782        H798   1.045       .  S
C784        C785   1.410       .  A
C784        H789   1.084       .  S
C785        C786   1.414       .  A
C785        N790   1.438       .  S
C786        C787   1.404   1_556  A
C787        C788   1.404       .  A
C787        H791   1.084       .  S
C788        N792   1.438       .  S
N790        H793   1.046       .  S
N790        H794   1.045       .  S
N792        H795   1.046       .  S
N792        H796   1.045       .  S
