geometry optimzed in LAMMPS
_audit_creation_date              2020-11-30 
_audit_creation_method            'lammps2cif' 
_symmetry_space_group_name_H-M    'P1' 
_symmetry_Int_Tables_number       1 
_symmetry_cell_setting            triclinic 
loop_ 
_symmetry_equiv_pos_as_xyz 
  x,y,z 
_cell_length_a                    54.93706771 
_cell_length_b                    54.978198566812075 
_cell_length_c                    55.02526665781203 
_cell_angle_alpha                 90.03279892177076 
_cell_angle_beta                  90.02259664886999 
_cell_angle_gamma                 89.96609344779121 
loop_ 
_atom_site_label 
_atom_site_type_symbol 
_atom_site_fract_x 
_atom_site_fract_y 
_atom_site_fract_z 
_atom_site_charge 
O1          O  0.84748801  0.87501800  0.59984367    -0.82000
C2          C  0.87016989  0.82125958  0.68486822     0.97400
O3          O  0.87844643  0.81754133  0.66382138    -0.71100
O4          O  0.84150848  0.81284484  0.63435505    -0.74700
Al5        Al  0.87037705  0.83158245  0.63299855     1.49000
C6          C  0.82114760  0.81828035  0.62525104     0.92600
O7          O  0.80952519  0.86694185  0.65662710    -0.80900
O8          O  0.87149714  0.90175305  0.65792601    -0.74400
Al9        Al  0.83004365  0.87035671  0.62935898     1.90100
O10         O  0.83466834  0.88060552  0.68421148    -0.73500
O11         O  0.89987747  0.86415527  0.66709290    -0.73400
O12         O  0.86136892  0.84175951  0.69021686    -0.79000
O13         O  0.90103097  0.84752594  0.63090252    -0.77200
O14         O  0.85558081  0.85779081  0.64484435    -1.13400
O15         O  0.86523372  0.83932887  0.59934813    -0.72600
C16         C  0.85761872  0.85798290  0.58830016     0.98200
C17         C  0.81346625  0.87444441  0.67784650     0.94600
Al18       Al  0.86604691  0.87101277  0.67249857     1.55600
O19         O  0.81689916  0.83986416  0.61868849    -0.77200
C20         C  0.91187807  0.85684690  0.64891171     0.98700
C21         C  0.85558099  0.91381274  0.64662351     0.93600
O22         O  0.83737638  0.90340441  0.63719587    -0.82500
O23         O  0.66288021  0.87156596  0.89209971    -0.82000
C24         C  0.63303448  0.82150033  0.80707007     0.97400
O25         O  0.62697941  0.81630126  0.82861184    -0.71100
O26         O  0.66638396  0.81102752  0.85447201    -0.74700
Al27       Al  0.63762440  0.82924911  0.85928842     1.49000
C28         C  0.68733507  0.81604258  0.86219358     0.92600
O29         O  0.69526741  0.86638505  0.83162306    -0.80900
O30         O  0.63332741  0.90081927  0.83822927    -0.74400
Al31       Al  0.67760512  0.86850552  0.86098684     1.90100
O32         O  0.66742879  0.88122823  0.80729430    -0.73500
O33         O  0.60465953  0.86354050  0.83031336    -0.73400
O34         O  0.64049279  0.84257063  0.80218165    -0.79000
O35         O  0.60735715  0.84459441  0.86525504    -0.77200
O36         O  0.65085643  0.85630265  0.84743087    -1.13400
O37         O  0.64545603  0.83574961  0.89256870    -0.72600
C38         C  0.65321077  0.85428965  0.90367510     0.98200
C39         C  0.68899579  0.87435842  0.81112378     0.94600
Al40       Al  0.63752821  0.87082457  0.82171501     1.55600
O41         O  0.69213830  0.83752019  0.86903425    -0.77200
C42         C  0.59492063  0.85578849  0.84960759     0.98700
C43         C  0.64975564  0.91274263  0.84889108     0.93600
O44         O  0.66911572  0.90219181  0.85566945    -0.82500
O45         O  0.84613990  0.63307294  0.89122992    -0.82000
C46         C  0.87590193  0.68648559  0.80900636     0.97400
O47         O  0.88256422  0.69057483  0.83057060    -0.71100
O48         O  0.84366276  0.69532068  0.85696040    -0.74700
Al49       Al  0.87217689  0.67635315  0.86057331     1.49000
C50         C  0.82237634  0.69006428  0.86354023     0.92600
O51         O  0.81360133  0.64148867  0.83104637    -0.80900
O52         O  0.87551112  0.60610966  0.83638728    -0.74400
Al53       Al  0.83137862  0.63787773  0.86034076     1.90100
O54         O  0.84124186  0.62693460  0.80637273    -0.73500
O55         O  0.90467551  0.64344365  0.82954399    -0.73400
O56         O  0.86822312  0.66575612  0.80296075    -0.79000
O57         O  0.90234539  0.66028279  0.86541574    -0.77200
O58         O  0.85836189  0.65021819  0.84741502    -1.13400
O59         O  0.86473608  0.66810244  0.89342722    -0.72600
C60         C  0.85714498  0.64894439  0.90357264     0.98200
C61         C  0.81963422  0.63364165  0.81040886     0.94600
Al62       Al  0.87140525  0.63669586  0.82103892     1.55600
O63         O  0.81727924  0.66853156  0.86981688    -0.77200
C64         C  0.91475657  0.64993147  0.84913223     0.98700
C65         C  0.85856843  0.59409955  0.84612740     0.93600
O66         O  0.83940479  0.60459174  0.85339009    -0.82500
O67         O  0.66306753  0.63446986  0.59685657    -0.82000
C68         C  0.63896077  0.68638457  0.68265137     0.97400
O69         O  0.63193109  0.69112247  0.66128917    -0.71100
O70         O  0.66953475  0.69588993  0.63265327    -0.74700
Al71       Al  0.64051894  0.67762335  0.63025054     1.49000
C72         C  0.68987568  0.69037801  0.62358703     0.92600
O73         O  0.70051298  0.64065036  0.65425313    -0.80900
O74         O  0.63805838  0.60676052  0.65324057    -0.74400
Al75       Al  0.68032533  0.63831599  0.62649140     1.90100
O76         O  0.67462496  0.62703167  0.68109929    -0.73500
O77         O  0.60977720  0.64424650  0.66258657    -0.73400
O78         O  0.64760351  0.66573889  0.68750198    -0.79000
O79         O  0.60986601  0.66203659  0.62687325    -0.77200
O80         O  0.65473021  0.65093584  0.64182653    -1.13400
O81         O  0.64606369  0.67051605  0.59650929    -0.72600
C82         C  0.65252831  0.65137680  0.58556264     0.98200
C83         C  0.69613870  0.63274276  0.67525253     0.94600
Al84       Al  0.64343607  0.63706612  0.66880479     1.55600
O85         O  0.69408946  0.66886318  0.61670356    -0.77200
C86         C  0.59854128  0.65190113  0.64404378     0.98700
C87         C  0.65383842  0.59483649  0.64162190     0.93600
O88         O  0.67239477  0.60525501  0.63308359    -0.82500
O89         O  0.87507409  0.16125710  0.60210469    -0.82000
C90         C  0.82098430  0.13734919  0.68673132     0.97400
O91         O  0.81616477  0.13116997  0.66515364    -0.71100
O92         O  0.81336786  0.16948978  0.63755660    -0.74700
Al93       Al  0.83047570  0.13988900  0.63455390     1.49000
C94         C  0.81983698  0.18991421  0.62955451     0.92600
O95         O  0.86805799  0.19808593  0.65984623    -0.80900
O96         O  0.90132762  0.13529944  0.65850558    -0.74400
Al97       Al  0.87096885  0.17839820  0.63184671     1.90100
O98         O  0.88083001  0.17139908  0.68657623    -0.73500
O99         O  0.86319262  0.10752409  0.66619353    -0.73400
O100        O  0.84192704  0.14491983  0.69205231    -0.79000
O101        O  0.84487197  0.10895457  0.63090797    -0.77200
O102        O  0.85751097  0.15289705  0.64662450    -1.13400
O103        O  0.83849117  0.14553755  0.60097537    -0.72600
C104        C  0.85819941  0.15101123  0.59040189     0.98200
C105        C  0.87527000  0.19296520  0.68097023     0.94600
Al106      Al  0.87075487  0.14074930  0.67353122     1.55600
O107        O  0.84108237  0.19294236  0.62136867    -0.77200
C108        C  0.85503537  0.09687444  0.64748976     0.98700
C109        C  0.91383068  0.15122447  0.64781962     0.93600
O110        O  0.90381308  0.17002459  0.63927965    -0.82500
O111        O  0.87698782  0.34427009  0.89506167    -0.82000
C112        C  0.82109234  0.37564157  0.81440432     0.97400
O113        O  0.81773010  0.38106957  0.83639211    -0.71100
O114        O  0.81337078  0.34151517  0.86259832    -0.74700
Al115      Al  0.83276037  0.37014561  0.86574085     1.49000
C116        C  0.81905693  0.32051792  0.86999227     0.92600
O117        O  0.86662917  0.31110335  0.83570609    -0.80900
O118        O  0.90255888  0.37221234  0.83881248    -0.74400
Al119      Al  0.87115300  0.32922936  0.86459337     1.90100
O120        O  0.87923508  0.33875615  0.81002203    -0.73500
O121        O  0.86579771  0.40196640  0.83388944    -0.73400
O122        O  0.84128215  0.36705513  0.80769196    -0.79000
O123        O  0.84950071  0.40027936  0.87014908    -0.77200
O124        O  0.85841240  0.35612731  0.85176283    -1.13400
O125        O  0.84172683  0.36232565  0.89832588    -0.72600
C126        C  0.86107933  0.35452195  0.90796013     0.98200
C127        C  0.87362921  0.31705193  0.81474556     0.94600
Al128      Al  0.87113473  0.36892803  0.82490174     1.55600
O129        O  0.84088851  0.31558971  0.87521413    -0.77200
C130        C  0.86028300  0.41214291  0.85367529     0.98700
C131        C  0.91474579  0.35544216  0.84860375     0.93600
O132        O  0.90423692  0.33670401  0.85665626    -0.82500
O133        O  0.63640182  0.16268525  0.89693787    -0.82000
C134        C  0.68561878  0.13512097  0.81073008     0.97400
O135        O  0.69100345  0.12842500  0.83205682    -0.71100
O136        O  0.69804690  0.16554309  0.86095914    -0.74700
Al137      Al  0.67818410  0.13726233  0.86339267     1.49000
C138        C  0.69365082  0.18607110  0.87017101     0.92600
O139        O  0.64492117  0.19823558  0.83912755    -0.80900
O140        O  0.60625852  0.13831445  0.84269842    -0.74400
Al141      Al  0.64101441  0.17915802  0.86719780     1.90100
O142        O  0.62832961  0.17307416  0.81316454    -0.73500
O143        O  0.64160172  0.10757675  0.83257496    -0.73400
O144        O  0.66472126  0.14340002  0.80621327    -0.79000
O145        O  0.66169352  0.10708848  0.86693814    -0.77200
O146        O  0.65187243  0.15251196  0.85219559    -1.13400
O147        O  0.67102158  0.14299638  0.89720697    -0.72600
C148        C  0.65248598  0.15091676  0.90833281     0.98200
C149        C  0.63693828  0.19383890  0.81817394     0.94600
Al150      Al  0.63645451  0.14147506  0.82592155     1.55600
O151        O  0.67232557  0.19122528  0.87695690    -0.77200
C152        C  0.64961262  0.09613105  0.85081849     0.98700
C153        C  0.59542822  0.15501247  0.85412503     0.93600
O154        O  0.60696873  0.17368950  0.86091728    -0.82500
O155        O  0.64135721  0.34631693  0.60349747    -0.82000
C156        C  0.68754264  0.37952980  0.68931976     0.97400
O157        O  0.69275593  0.38569095  0.66787138    -0.71100
O158        O  0.70179603  0.34698915  0.64198111    -0.74700
Al159      Al  0.68125594  0.37409527  0.63703888     1.49000
C160        C  0.69826094  0.32594905  0.63370049     0.92600
O161        O  0.64906859  0.31304274  0.66317820    -0.80900
O162        O  0.60926927  0.37135575  0.65746750    -0.74400
Al163      Al  0.64549962  0.33107796  0.63419453     1.90100
O164        O  0.63232420  0.33910799  0.68814542    -0.73500
O165        O  0.64316954  0.40364993  0.66533231    -0.73400
O166        O  0.66726288  0.37000893  0.69388795    -0.79000
O167        O  0.66335703  0.40273559  0.63108997    -0.77200
O168        O  0.65525738  0.35847466  0.64838696    -1.13400
O169        O  0.67598332  0.36603660  0.60349239    -0.72600
C170        C  0.65775919  0.35770943  0.59219281     0.98200
C171        C  0.64097240  0.31822012  0.68393674     0.94600
Al172      Al  0.63930408  0.37011143  0.67401958     1.55600
O173        O  0.67746609  0.31980286  0.62600151    -0.77200
C174        C  0.65049949  0.41414142  0.64628031     0.98700
C175        C  0.59893121  0.35411731  0.64656335     0.93600
O176        O  0.61120170  0.33599416  0.63946886    -0.82500
O177        O  0.17180726  0.90112126  0.63181296    -0.82000
C178        C  0.13850482  0.82082319  0.68079848     0.97400
O179        O  0.14609089  0.84193739  0.68536928    -0.71100
O180        O  0.17302898  0.88026589  0.67807067    -0.74700
Al181      Al  0.14158979  0.87016733  0.66631459     1.49000
C182        C  0.19399557  0.87219872  0.67306556     0.92600
O183        O  0.19167803  0.83681706  0.61341881    -0.80900
O184        O  0.14117513  0.83773250  0.59435653    -0.74400
Al185      Al  0.17851830  0.86745520  0.62434623     1.90100
O186        O  0.16653689  0.81024523  0.62865908    -0.73500
O187        O  0.10651351  0.84364703  0.62671702    -0.73400
O188        O  0.13128703  0.81502284  0.65973358    -0.79000
O189        O  0.10770663  0.86310999  0.66133240    -0.77200
O190        O  0.15240354  0.85552331  0.63948415    -1.13400
O191        O  0.13627285  0.90023120  0.64994316    -0.72600
C192        C  0.15298692  0.91199097  0.63948386     0.98200
C193        C  0.18695929  0.81527009  0.61970019     0.94600
Al194      Al  0.13765786  0.82894670  0.62820714     1.55600
O195        O  0.19834186  0.86349782  0.65232048    -0.77200
C196        C  0.09569580  0.85400643  0.64401376     0.98700
C197        C  0.14867606  0.85674537  0.58367574     0.93600
O198        O  0.16136808  0.87224169  0.59491592    -0.82500
O199        O  0.33916022  0.90247596  0.85266886    -0.82000
C200        C  0.37657824  0.82239839  0.80414794     0.97400
O201        O  0.36891746  0.84334100  0.79933449    -0.71100
O202        O  0.34120218  0.88105028  0.80383297    -0.74700
Al203      Al  0.37132287  0.87131428  0.81890824     1.49000
C204        C  0.31941140  0.87472690  0.80764324     0.92600
O205        O  0.31668217  0.83785830  0.86577683    -0.80900
O206        O  0.36195663  0.83535960  0.88953410    -0.74400
Al207      Al  0.33096885  0.86886466  0.85778144     1.90100
O208        O  0.34228390  0.81162263  0.84989049    -0.73500
O209        O  0.40066360  0.84479467  0.86316404    -0.73400
O210        O  0.38249405  0.81703442  0.82566960    -0.79000
O211        O  0.40437397  0.86455181  0.82866369    -0.77200
O212        O  0.35776481  0.85670696  0.84431664    -1.13400
O213        O  0.37496939  0.90110176  0.83531499    -0.72600
C214        C  0.35847887  0.91291424  0.84584547     0.98200
C215        C  0.32142218  0.81682792  0.85771759     0.94600
Al216      Al  0.37078966  0.82949681  0.85611854     1.55600
O217        O  0.31319669  0.86684698  0.82825673    -0.77200
C218        C  0.41345538  0.85666364  0.84831859     0.98700
C219        C  0.35540739  0.85453735  0.90041989     0.93600
O220        O  0.34600727  0.87193479  0.88878956    -0.82500
O221        O  0.16223568  0.60751101  0.86355912    -0.82000
C222        C  0.13697291  0.69365540  0.81302910     0.97400
O223        O  0.12958453  0.67244301  0.80844715    -0.71100
O224        O  0.16773796  0.64460061  0.80263093    -0.74700
Al225      Al  0.13878196  0.64135538  0.82126386     1.49000
C226        C  0.18837865  0.63600681  0.80786605     0.92600
O227        O  0.19895511  0.66486326  0.85693015    -0.80900
O228        O  0.13761602  0.66317994  0.89250282    -0.74400
Al229      Al  0.17921106  0.63710959  0.85975459     1.90100
O230        O  0.17336416  0.69158646  0.87157191    -0.73500
O231        O  0.10847045  0.67260709  0.85614114    -0.73400
O232        O  0.14552219  0.69841775  0.83376783    -0.79000
O233        O  0.10834298  0.63740215  0.83733994    -0.77200
O234        O  0.15328052  0.65251473  0.84788999    -1.13400
O235        O  0.14479600  0.60764937  0.82776258    -0.72600
C236        C  0.15190932  0.59636114  0.84644436     0.98200
C237        C  0.19455229  0.68590429  0.86466215     0.94600
Al238      Al  0.14212638  0.67922248  0.86234958     1.55600
O239        O  0.19245192  0.62764537  0.82886699    -0.77200
C240        C  0.09718733  0.65404382  0.84862037     0.98700
C241        C  0.15318334  0.65090301  0.90397970     0.93600
O242        O  0.17198627  0.64322748  0.89320359    -0.82500
O243        O  0.34637901  0.60634801  0.62651397    -0.82000
C244        C  0.37629407  0.69037243  0.67741671     0.97400
O245        O  0.38340617  0.66901921  0.68217347    -0.71100
O246        O  0.34486240  0.64188995  0.68798276    -0.74700
Al247      Al  0.37314575  0.63829276  0.66867133     1.49000
C248        C  0.32369497  0.63457410  0.68319552     0.92600
O249        O  0.31345505  0.66657831  0.63355526    -0.80900
O250        O  0.37514668  0.66133880  0.59800954    -0.74400
Al251      Al  0.33168159  0.63735825  0.63067750     1.90100
O252        O  0.34062059  0.69139244  0.61857081    -0.73500
O253        O  0.40458588  0.66931067  0.63496438    -0.73400
O254        O  0.36790104  0.69557093  0.65681694    -0.79000
O255        O  0.40336361  0.63359177  0.65228278    -0.77200
O256        O  0.35869662  0.65077738  0.64244946    -1.13400
O257        O  0.36562120  0.60483673  0.66134065    -0.72600
C258        C  0.35690129  0.59422364  0.64287551     0.98200
C259        C  0.31900152  0.68711369  0.62504353     0.94600
Al260      Al  0.37112217  0.67711422  0.62830589     1.55600
O261        O  0.31819605  0.62856238  0.66168071    -0.77200
C262        C  0.41532170  0.65018975  0.64182716     0.98700
C263        C  0.35798778  0.65156028  0.58634329     0.93600
O264        O  0.33931030  0.64368023  0.59723021    -0.82500
O265        O  0.10690433  0.17368018  0.63652439    -0.82000
C266        C  0.18698955  0.13488649  0.68221062     0.97400
O267        O  0.16640992  0.14334845  0.68768256    -0.71100
O268        O  0.12825974  0.17147191  0.68335927    -0.74700
Al269      Al  0.13768036  0.14076695  0.66916306     1.49000
C270        C  0.13495249  0.19304523  0.67908877     0.92600
O271        O  0.17145055  0.19318269  0.62000182    -0.80900
O272        O  0.16928602  0.14502748  0.59669104    -0.74400
Al273      Al  0.14048768  0.18043566  0.62962173     1.90100
O274        O  0.19754285  0.16580980  0.63259222    -0.73500
O275        O  0.16083375  0.10801573  0.62588713    -0.73400
O276        O  0.19152816  0.12803110  0.66069633    -0.79000
O277        O  0.14383993  0.10704824  0.66165245    -0.77200
O278        O  0.15189555  0.15302028  0.64277219    -1.13400
O279        O  0.10748352  0.13730472  0.65314775    -0.72600
C280        C  0.09602551  0.15462076  0.64339927     0.98200
C281        C  0.19293057  0.18697494  0.62523837     0.94600
Al282      Al  0.17758337  0.13797684  0.62997159     1.55600
O283        O  0.14438661  0.19825465  0.65889786    -0.77200
C284        C  0.15077193  0.09611663  0.64268655     0.98700
C285        C  0.15098690  0.15450673  0.58640047     0.93600
O286        O  0.13545097  0.16618426  0.59861267    -0.82500
O287        O  0.40358013  0.34380008  0.62506590    -0.82000
C288        C  0.31915360  0.36844630  0.67890298     0.97400
O289        O  0.34062739  0.37547005  0.68329649    -0.71100
O290        O  0.36918540  0.33770771  0.68654757    -0.74700
Al291      Al  0.37129063  0.36710710  0.66885890     1.49000
C292        C  0.37707140  0.31707374  0.68036583     0.92600
O293        O  0.34487075  0.30872273  0.63039360    -0.80900
O294        O  0.34683066  0.37226988  0.59911504    -0.74400
Al295      Al  0.37320685  0.32802996  0.62847907     1.90100
O296        O  0.31868715  0.33573953  0.61787280    -0.73500
O297        O  0.33827964  0.39913649  0.63754803    -0.73400
O298        O  0.31369585  0.36067473  0.65807760    -0.79000
O299        O  0.37445753  0.39833664  0.65407295    -0.77200
O300        O  0.35886813  0.35371089  0.64213064    -1.13400
O301        O  0.40473016  0.36123202  0.66076416    -0.72600
C302        C  0.41549486  0.35360640  0.64195446     0.98200
C303        C  0.32408634  0.31391433  0.62243415     0.94600
Al304      Al  0.33172690  0.36593108  0.62925008     1.55600
O305        O  0.38269529  0.31283298  0.65849902    -0.77200
C306        C  0.35719962  0.41016664  0.64455757     0.98700
C307        C  0.35806712  0.35709774  0.58615347     0.93600
O308        O  0.36649275  0.33782408  0.59558979    -0.82500
O309        O  0.39960151  0.16248019  0.86465055    -0.82000
C310        C  0.31735218  0.13146515  0.81058726     0.97400
O311        O  0.33923013  0.12559182  0.80622867    -0.71100
O312        O  0.36765515  0.16321758  0.80112739    -0.74700
Al313      Al  0.36964407  0.13526760  0.82111411     1.49000
C314        C  0.37547285  0.18415777  0.80605179     0.92600
O315        O  0.34033815  0.19577810  0.85262008    -0.80900
O316        O  0.34431010  0.13541638  0.89093275    -0.74400
Al317      Al  0.36927568  0.17759602  0.85808487     1.90100
O318        O  0.31516703  0.16915337  0.86813909    -0.73500
O319        O  0.33702105  0.10500425  0.85498607    -0.73400
O320        O  0.31153021  0.14022302  0.83090112    -0.79000
O321        O  0.37299847  0.10525822  0.83796998    -0.77200
O322        O  0.35616502  0.15033292  0.84642456    -1.13400
O323        O  0.40289561  0.14206461  0.83056460    -0.72600
C324        C  0.41243452  0.15076204  0.84968554     0.98200
C325        C  0.31965548  0.19048979  0.86102217     0.94600
Al326      Al  0.32933102  0.13840452  0.86008914     1.55600
O327        O  0.38046249  0.18995180  0.82764067    -0.77200
C328        C  0.35595368  0.09393684  0.84830250     0.98700
C329        C  0.35384073  0.15282357  0.90241825     0.93600
O330        O  0.36108313  0.17155954  0.89133314    -0.82500
O331        O  0.10917754  0.35000492  0.86397216    -0.82000
C332        C  0.19503734  0.37358801  0.81314420     0.97400
O333        O  0.17400583  0.38118757  0.80791507    -0.71100
O334        O  0.14595868  0.34307131  0.80290116    -0.74700
Al335      Al  0.14287823  0.37228124  0.82101750     1.49000
C336        C  0.13638044  0.32298238  0.80836864     0.92600
O337        O  0.16689619  0.31294275  0.85772171    -0.80900
O338        O  0.16483138  0.37517693  0.89248155    -0.74400
Al339      Al  0.13886466  0.33275360  0.86032936     1.90100
O340        O  0.19320072  0.33906608  0.87226036    -0.73500
O341        O  0.17397557  0.40353122  0.85525173    -0.73400
O342        O  0.19974906  0.36579522  0.83409426    -0.79000
O343        O  0.13893637  0.40277232  0.83637832    -0.77200
O344        O  0.15411329  0.35842723  0.84798038    -1.13400
O345        O  0.10904778  0.36653362  0.82786889    -0.72600
C346        C  0.09780704  0.36035341  0.84690971     0.98200
C347        C  0.18782376  0.31767668  0.86586951     0.94600
Al348      Al  0.18071232  0.37002117  0.86232106     1.55600
O349        O  0.12890188  0.31904461  0.82971559    -0.77200
C350        C  0.15520477  0.41441181  0.84765218     0.98700
C351        C  0.15378363  0.35899807  0.90432923     0.93600
O352        O  0.14557306  0.34036295  0.89365413    -0.82500
O353        O  0.90260953  0.87558998  0.33819386    -0.82000
C354        C  0.81726325  0.82418220  0.36517821     0.97400
O355        O  0.83886490  0.81880275  0.37076150    -0.71100
O356        O  0.86706566  0.81404847  0.33260127    -0.74700
Al357      Al  0.86953903  0.83243938  0.36194021     1.49000
C358        C  0.87604267  0.81971865  0.31227516     0.92600
O359        O  0.84339120  0.86916385  0.30274057    -0.80900
O360        O  0.84705240  0.90408906  0.36472423    -0.74400
Al361      Al  0.87215560  0.87181069  0.32193224     1.90100
O362        O  0.81774496  0.88307700  0.32979473    -0.73500
O363        O  0.83867908  0.86695737  0.39369085    -0.73400
O364        O  0.81210375  0.84511484  0.35749335    -0.79000
O365        O  0.87325289  0.84738219  0.39305325    -0.77200
O366        O  0.85767558  0.85931573  0.34817182    -1.13400
O367        O  0.90287700  0.84014914  0.35615914    -0.72600
C368        C  0.91404530  0.85888411  0.34911929     0.98200
C369        C  0.82259005  0.87732942  0.30812874     0.94600
Al370      Al  0.83123254  0.87359595  0.36040422     1.55600
O371        O  0.88197833  0.84143980  0.30796012    -0.77200
C372        C  0.85695256  0.85861012  0.40476248     0.98700
C373        C  0.85786279  0.91591511  0.34834770     0.93600
O374        O  0.86560658  0.90516606  0.32959217    -0.82500
O375        O  0.90476533  0.63809621  0.15025964    -0.82000
C376        C  0.82156938  0.69404349  0.12678045     0.97400
O377        O  0.84301342  0.69804297  0.11952909    -0.71100
O378        O  0.87242337  0.70133733  0.15671966    -0.74700
Al379      Al  0.87345465  0.68282401  0.12770376     1.49000
C380        C  0.88122069  0.69550396  0.17706839     0.92600
O381        O  0.84821010  0.64760414  0.18772777    -0.80900
O382        O  0.84661939  0.61293544  0.12595562    -0.74400
Al383      Al  0.87555027  0.64346167  0.16754733     1.90100
O384        O  0.82015893  0.63552706  0.16228459    -0.73500
O385        O  0.83966669  0.65001210  0.09721252    -0.73400
O386        O  0.81580028  0.67342497  0.13468551    -0.79000
O387        O  0.87567596  0.66712148  0.09719804    -0.77200
O388        O  0.86067220  0.65670782  0.14199966    -1.13400
O389        O  0.90686639  0.67369961  0.13272113    -0.72600
C390        C  0.91693681  0.65408951  0.13932923     0.98200
C391        C  0.82656444  0.64158825  0.18352605     0.94600
Al392      Al  0.83293486  0.64403911  0.13093416     1.55600
O393        O  0.88706279  0.67364847  0.18119243    -0.77200
C394        C  0.85878251  0.65633847  0.08607106     0.98700
C395        C  0.85802796  0.60034001  0.14123984     0.93600
O396        O  0.86716687  0.61033390  0.15984506    -0.82500
O397        O  0.60923271  0.87656917  0.15252766    -0.82000
C398        C  0.69686142  0.82814619  0.12752190     0.97400
O399        O  0.67557426  0.82225276  0.12107651    -0.71100
O400        O  0.64772330  0.81707207  0.15917960    -0.74700
Al401      Al  0.64415197  0.83453881  0.12975622     1.49000
C402        C  0.63898318  0.82273373  0.17957854     0.92600
O403        O  0.66862586  0.87431701  0.18738919    -0.80900
O404        O  0.66381396  0.90592106  0.12388434    -0.58400
Al405      Al  0.63993761  0.87495144  0.16842960     1.90100
O406        O  0.69385631  0.88897157  0.16040444    -0.73500
O407        O  0.67446416  0.86790738  0.09712580    -0.73400
O408        O  0.70106997  0.84931381  0.13513866    -0.79000
O409        O  0.63947619  0.84886430  0.09864987    -0.77200
O410        O  0.65492154  0.86216021  0.14276509    -1.13400
O411        O  0.61035997  0.84036904  0.13588723    -0.72600
C412        C  0.59850433  0.85879165  0.14278287     0.98200
C413        C  0.68919727  0.88278584  0.18199305     0.94600
Al414      Al  0.68101365  0.87683584  0.13018098     1.55600
O415        O  0.63222761  0.84435189  0.18376683    -0.77200
C416        C  0.65613327  0.85896815  0.08652999     0.98700
C417        C  0.65210231  0.91819288  0.13924975     0.93600
O418        O  0.64463010  0.90831647  0.15867340    -0.82500
O419        O  0.61111580  0.63806260  0.33474235    -0.82000
C420        C  0.69440039  0.68896171  0.36798470     0.97400
O421        O  0.67247507  0.69379687  0.37272113    -0.71100
O422        O  0.64702281  0.70021121  0.33317253    -0.74700
Al423      Al  0.64245154  0.68069651  0.36138615     1.49000
C424        C  0.63902271  0.69554989  0.31221409     0.92600
O425        O  0.67095010  0.64787781  0.30228129    -0.80900
O426        O  0.66505255  0.60918536  0.36154950    -0.74400
Al427      Al  0.64171259  0.64335329  0.31971453     1.90100
O428        O  0.69595785  0.63252903  0.32917924    -0.73500
O429        O  0.67133881  0.64432903  0.39302284    -0.73400
O430        O  0.70001803  0.66844651  0.35958072    -0.79000
O431        O  0.63691545  0.66427166  0.39116939    -0.77200
O432        O  0.65500079  0.65453527  0.34710896    -1.13400
O433        O  0.60940398  0.67330283  0.35337020    -0.72600
C434        C  0.59906209  0.65429547  0.34563288     0.98200
C435        C  0.69194479  0.64071763  0.30805266     0.94600
Al436      Al  0.68088732  0.63978052  0.35980857     1.55600
O437        O  0.63172978  0.67441473  0.30701602    -0.77200
C438        C  0.65224080  0.65219128  0.40321517     0.98700
C439        C  0.65497091  0.59810291  0.34421105     0.93600
O440        O  0.64847271  0.60965822  0.32552513    -0.82500
O441        O  0.63520642  0.11114985  0.15962547    -0.82000
C442        C  0.68818161  0.19359498  0.13034998     0.97400
O443        O  0.69207274  0.17231913  0.12259598    -0.71100
O444        O  0.69758622  0.14447927  0.16049311    -0.74700
Al445      Al  0.67783747  0.14200018  0.13252408     1.49000
C446        C  0.69289211  0.13765685  0.18178809     0.92600
O447        O  0.64394673  0.17083828  0.19275675    -0.80900
O448        O  0.60845773  0.16670193  0.13126459    -0.74400
Al449      Al  0.64023006  0.14183567  0.17443705     1.90100
O450        O  0.62910241  0.19596649  0.16593745    -0.73500
O451        O  0.64507357  0.17468274  0.10204909    -0.73400
O452        O  0.66784401  0.19953917  0.13901899    -0.79000
O453        O  0.66092231  0.13826908  0.10263170    -0.77200
O454        O  0.65221289  0.15510710  0.14748969    -1.13400
O455        O  0.66950241  0.10894161  0.13929244    -0.72600
C456        C  0.65065900  0.09905737  0.14783647     0.98200
C457        C  0.63584000  0.19157327  0.18737198     0.94600
Al458      Al  0.63874270  0.18193947  0.13551611     1.55600
O459        O  0.67124616  0.13237893  0.18765518    -0.77200
C460        C  0.65123852  0.15552850  0.09102512     0.98700
C461        C  0.59628759  0.15618837  0.14751761     0.93600
O462        O  0.60666345  0.14873828  0.16672236    -0.82500
O463        O  0.64453055  0.40483921  0.33380584    -0.82000
C464        C  0.69306188  0.32377146  0.36918050     0.97400
O465        O  0.69832410  0.34419597  0.36032976    -0.71100
O466        O  0.69300104  0.38202081  0.33245858    -0.74700
Al467      Al  0.68027080  0.37334290  0.36371218     1.49000
C468        C  0.68696272  0.37593011  0.31116312     0.92600
O469        O  0.62833114  0.34029390  0.31375629    -0.80900
O470        O  0.60743592  0.34042960  0.36161360    -0.74400
Al471      Al  0.63799808  0.37132928  0.32667450     1.90100
O472        O  0.64382979  0.31402245  0.33948435    -0.73500
O473        O  0.63783231  0.34968339  0.39793287    -0.73400
O474        O  0.67198077  0.31967320  0.37726750    -0.79000
O475        O  0.67358160  0.36760339  0.39758689    -0.77200
O476        O  0.65304400  0.35949544  0.35284250    -1.13400
O477        O  0.66550736  0.40421307  0.36776758    -0.72600
C478        C  0.65382866  0.41575423  0.35176231     0.98200
C479        C  0.63505533  0.31892393  0.31891562     0.94600
Al480      Al  0.64118171  0.33326550  0.36783700     1.55600
O481        O  0.66582634  0.36833632  0.30694711    -0.77200
C482        C  0.65496107  0.36029207  0.40898112     0.98700
C483        C  0.59649267  0.35891768  0.35343530     0.93600
O484        O  0.60817829  0.37558698  0.34300600    -0.82500
O485        O  0.87529268  0.11193287  0.33879810    -0.82000
C486        C  0.82282404  0.19465147  0.37137048     0.97400
O487        O  0.81788032  0.17272694  0.37599738    -0.71100
O488        O  0.81321974  0.14781108  0.33592745    -0.74700
Al489      Al  0.83171092  0.14281844  0.36467741     1.49000
C490        C  0.81878592  0.14037363  0.31499623     0.92600
O491        O  0.86670993  0.17274824  0.30713409    -0.80900
O492        O  0.90309417  0.16566324  0.36822783    -0.74400
Al493      Al  0.87057483  0.14307961  0.32434687     1.90100
O494        O  0.88145453  0.19709651  0.33511073    -0.73500
O495        O  0.86636026  0.17155008  0.39814754    -0.73400
O496        O  0.84365479  0.20039809  0.36378302    -0.79000
O497        O  0.84720250  0.13681492  0.39495100    -0.77200
O498        O  0.85833550  0.15574790  0.35155076    -1.13400
O499        O  0.83946919  0.10980833  0.35619630    -0.72600
C500        C  0.85866235  0.09952729  0.34866175     0.98200
C501        C  0.87466767  0.19331943  0.31344968     0.94600
Al502      Al  0.87246785  0.18148243  0.36524035     1.55600
O503        O  0.84016308  0.13342179  0.31038375    -0.77200
C504        C  0.85856843  0.15211599  0.40771040     0.98700
C505        C  0.91473597  0.15619889  0.35091806     0.93600
O506        O  0.90390813  0.14992226  0.33168455    -0.82500
O507        O  0.87002461  0.40630652  0.15496015    -0.82000
C508        C  0.81768269  0.32143653  0.12907876     0.97400
O509        O  0.81317108  0.34284053  0.12202360    -0.71100
O510        O  0.80786007  0.37253619  0.15882686    -0.74700
Al511      Al  0.82728089  0.37362936  0.13050470     1.49000
C512        C  0.81341814  0.38046043  0.17959048     0.92600
O513        O  0.86283185  0.34783159  0.19178973    -0.80900
O514        O  0.89738195  0.34889201  0.12984186    -0.74400
Al515      Al  0.86573938  0.37614244  0.17167006     1.90100
O516        O  0.87626061  0.32148246  0.16548005    -0.73500
O517        O  0.86055996  0.33995206  0.10113493    -0.73400
O518        O  0.83792576  0.31622160  0.13839711    -0.79000
O519        O  0.84398964  0.37621598  0.10038864    -0.77200
O520        O  0.85329158  0.36134818  0.14566542    -1.13400
O521        O  0.83515501  0.40692974  0.13570803    -0.72600
C522        C  0.85398582  0.41770381  0.14311618     0.98200
C523        C  0.87059988  0.32675087  0.18698375     0.94600
Al524      Al  0.86686695  0.33405497  0.13465494     1.55600
O525        O  0.83511246  0.38586292  0.18489844    -0.77200
C526        C  0.85440465  0.35881796  0.08968752     0.98700
C527        C  0.90954711  0.36030025  0.14550602     0.93600
O528        O  0.89909980  0.36921587  0.16396846    -0.82500
O529        O  0.10942487  0.13179582  0.33723940    -0.82000
C530        C  0.19462076  0.18406576  0.36425375     0.97400
O531        O  0.17283268  0.18974248  0.36844897    -0.71100
O532        O  0.14593076  0.19314521  0.32956220    -0.74700
Al533      Al  0.14235839  0.17599176  0.35918188     1.49000
C534        C  0.13637912  0.18708038  0.30966344     0.92600
O535        O  0.16779130  0.13860440  0.30145662    -0.80900
O536        O  0.16530706  0.10357335  0.36288842    -0.74400
Al537      Al  0.13951033  0.13565190  0.32057846     1.90100
O538        O  0.19460472  0.12582357  0.32810675    -0.73500
O539        O  0.17182753  0.14124931  0.39251326    -0.73400
O540        O  0.19982476  0.16304337  0.35688770    -0.79000
O541        O  0.13788695  0.16218112  0.39019431    -0.77200
O542        O  0.15416441  0.14860923  0.34648250    -1.13400
O543        O  0.10888211  0.16841759  0.35290142    -0.72600
C544        C  0.09783135  0.14913549  0.34687453     0.98200
C545        C  0.18914689  0.13204332  0.30658481     0.94600
Al546      Al  0.18056190  0.13453819  0.35910068     1.55600
O547        O  0.12915930  0.16559522  0.30634450    -0.77200
C548        C  0.15349373  0.15097169  0.40267278     0.98700
C549        C  0.15491386  0.09164091  0.34626885     0.93600
O550        O  0.14656220  0.10262758  0.32806145    -0.82500
O551        O  0.16202569  0.39684068  0.12886130    -0.82000
C552        C  0.13048123  0.31164402  0.17654013     0.97400
O553        O  0.12447634  0.33308743  0.18207080    -0.71100
O554        O  0.16311731  0.35937339  0.18907183    -0.74700
Al555      Al  0.13491890  0.36388894  0.16988531     1.49000
C556        C  0.18420234  0.36695560  0.18450515     0.92600
O557        O  0.19372552  0.33595349  0.13441052    -0.80900
O558        O  0.13273352  0.34422104  0.09800110    -0.74400
Al559      Al  0.17629675  0.36558873  0.13208461     1.90100
O560        O  0.16633089  0.31251198  0.11770019    -0.73500
O561        O  0.10272027  0.33504211  0.13452539    -0.73400
O562        O  0.13829600  0.30686924  0.15553963    -0.79000
O563        O  0.10491588  0.36968218  0.15404427    -0.77200
O564        O  0.14899033  0.35222926  0.14316223    -1.13400
O565        O  0.14265027  0.39712848  0.16364873    -0.72600
C566        C  0.15163818  0.40834282  0.14578517     0.98200
C567        C  0.18783055  0.31585498  0.12508349     0.94600
Al568      Al  0.13600689  0.32685451  0.12771085     1.55600
O569        O  0.18966339  0.37342713  0.16318393    -0.77200
C570        C  0.09259568  0.35387936  0.14296571     0.98700
C571        C  0.15011647  0.35445087  0.08704020     0.93600
O572        O  0.16911646  0.36057634  0.09846058    -0.82500
O573        O  0.34802650  0.10532875  0.12553242    -0.82000
C574        C  0.37414215  0.19190869  0.17604046     0.97400
O575        O  0.38086853  0.17047041  0.18087118    -0.71100
O576        O  0.34233469  0.14332940  0.18586643    -0.74700
Al577      Al  0.37130691  0.13951759  0.16785794     1.49000
C578        C  0.32172041  0.13498943  0.18035451     0.92600
O579        O  0.31216356  0.16443788  0.13056476    -0.80900
O580        O  0.37446303  0.16150041  0.09666484    -0.74400
Al581      Al  0.33159269  0.13592480  0.12859104     1.90100
O582        O  0.33877505  0.19055465  0.11658847    -0.73500
O583        O  0.40281654  0.17033816  0.13405547    -0.73400
O584        O  0.36571592  0.19668441  0.15530404    -0.79000
O585        O  0.40173553  0.13496316  0.15248950    -0.77200
O586        O  0.35752308  0.15091293  0.14094656    -1.13400
O587        O  0.36493951  0.10577824  0.16138397    -0.72600
C588        C  0.35829550  0.09410731  0.14277853     0.98200
C589        C  0.31722802  0.18528946  0.12251311     0.94600
Al590      Al  0.36948611  0.17749107  0.12679082     1.55600
O591        O  0.31751098  0.12704415  0.15922108    -0.77200
C592        C  0.41350541  0.15153251  0.14191120     0.98700
C593        C  0.35870212  0.14972981  0.08484160     0.93600
O594        O  0.33986105  0.14185059  0.09533654    -0.82500
O595        O  0.34425560  0.39986455  0.36275270    -0.82000
C596        C  0.37392791  0.31486338  0.31274684     0.97400
O597        O  0.37998818  0.33638986  0.30745411    -0.71100
O598        O  0.34128690  0.36309026  0.30217850    -0.74700
Al599      Al  0.37010216  0.36716671  0.32052750     1.49000
C600        C  0.32017051  0.37009144  0.30754719     0.92600
O601        O  0.31188462  0.33917571  0.35737537    -0.80900
O602        O  0.37390670  0.34650543  0.39197721    -0.74400
Al603      Al  0.32964218  0.36870924  0.35949695     1.90100
O604        O  0.33979303  0.31532162  0.37270570    -0.73500
O605        O  0.40278105  0.33754444  0.35468784    -0.73400
O606        O  0.36669313  0.30979975  0.33388977    -0.79000
O607        O  0.40076487  0.37237178  0.33559397    -0.77200
O608        O  0.35658605  0.35524052  0.34743721    -1.13400
O609        O  0.36293481  0.40050460  0.32758598    -0.72600
C610        C  0.35478329  0.41149304  0.34602814     0.98200
C611        C  0.31804054  0.31901906  0.36639121     0.94600
Al612      Al  0.36976028  0.32952141  0.36210443     1.55600
O613        O  0.31537714  0.37686745  0.32892636    -0.77200
C614        C  0.41306983  0.35628756  0.34632637     0.98700
C615        C  0.35711462  0.35711081  0.40352931     0.93600
O616        O  0.33775992  0.36338879  0.39282877    -0.82500
O617        O  0.16557373  0.62872788  0.09804274    -0.82000
C618        C  0.13794176  0.68348129  0.18094297     0.97400
O619        O  0.13191380  0.68767904  0.15922625    -0.71100
O620        O  0.17007326  0.69208250  0.13146613    -0.74700
Al621      Al  0.14148233  0.67315621  0.12905456     1.49000
C622        C  0.19035758  0.68681544  0.12220865     0.92600
O623        O  0.20143722  0.63969927  0.15581372    -0.80900
O624        O  0.14019004  0.60293636  0.15421167    -0.74400
Al625      Al  0.18223169  0.63476187  0.12772709     1.90100
O626        O  0.17531167  0.62566336  0.18238672    -0.73500
O627        O  0.11023899  0.63965378  0.16122700    -0.73400
O628        O  0.14662487  0.66311116  0.18676269    -0.79000
O629        O  0.11132821  0.65713188  0.12544960    -0.77200
O630        O  0.15581986  0.64720541  0.14187313    -1.13400
O631        O  0.14792776  0.66448029  0.09600471    -0.72600
C632        C  0.15491049  0.64502281  0.08589986     0.98200
C633        C  0.19664591  0.63257464  0.17703438     0.94600
Al634      Al  0.14402930  0.63388709  0.16886722     1.55600
O635        O  0.19509887  0.66518936  0.11602490    -0.77200
C636        C  0.09957067  0.64668586  0.14207461     0.98700
C637        C  0.15720831  0.59099007  0.14459183     0.93600
O638        O  0.17580852  0.60162087  0.13634853    -0.82500
O639        O  0.35094301  0.63641787  0.39214361    -0.82000
C640        C  0.37974980  0.68464340  0.30586787     0.97400
O641        O  0.38577642  0.69028649  0.32726837    -0.71100
O642        O  0.34687014  0.69682102  0.35411449    -0.74700
Al643      Al  0.37577125  0.67791892  0.35822012     1.49000
C644        C  0.32617228  0.69168758  0.36261631     0.92600
O645        O  0.31616041  0.64211920  0.33306345    -0.80900
O646        O  0.37652753  0.60514564  0.33749972    -0.74400
Al647      Al  0.33497343  0.63967911  0.36176147     1.90100
O648        O  0.34266193  0.62711734  0.30753189    -0.73500
O649        O  0.40682204  0.64110014  0.32938217    -0.73400
O650        O  0.37170117  0.66371096  0.30146325    -0.79000
O651        O  0.40615347  0.66195705  0.36324415    -0.77200
O652        O  0.36154079  0.65095473  0.34711414    -1.13400
O653        O  0.36887330  0.67188276  0.39183946    -0.72600
C654        C  0.36128681  0.65357266  0.40339597     0.98200
C655        C  0.32127607  0.63417701  0.31222168     0.94600
Al656      Al  0.37351668  0.63559508  0.32121841     1.55600
O657        O  0.32186932  0.67056430  0.37040831    -0.77200
C658        C  0.41765900  0.64930889  0.34785775     0.98700
C659        C  0.35953647  0.59428317  0.34841531     0.93600
O660        O  0.34161825  0.60614099  0.35635329    -0.82500
O661        O  0.16260865  0.86815037  0.39076317    -0.82000
C662        C  0.13426180  0.81686822  0.30627596     0.97400
O663        O  0.12765817  0.81231356  0.32773057    -0.71100
O664        O  0.16547502  0.80566819  0.35553836    -0.74700
Al665      Al  0.13743930  0.82555883  0.35837036     1.49000
C666        C  0.18617290  0.81013600  0.36425573     0.92600
O667        O  0.19893047  0.85757260  0.33287186    -0.80900
O668        O  0.13928533  0.89700000  0.33520167    -0.74400
Al669      Al  0.17950710  0.86241428  0.36108231     1.90100
O670        O  0.17338234  0.87348089  0.30662818    -0.73500
O671        O  0.10805734  0.86165851  0.32717817    -0.73400
O672        O  0.14334037  0.83724226  0.30107730    -0.79000
O673        O  0.10768580  0.84254427  0.36211611    -0.77200
O674        O  0.15281970  0.85145815  0.34641002    -1.13400
O675        O  0.14386573  0.83287483  0.39188710    -0.72600
C676        C  0.15103500  0.85205794  0.40232245     0.98200
C677        C  0.19442994  0.86584820  0.31196806     0.94600
Al678      Al  0.14184997  0.86613783  0.31976642     1.55600
O679        O  0.19112292  0.83130637  0.37169845    -0.77200
C680        C  0.09666899  0.85409874  0.34563619     0.98700
C681        C  0.15646873  0.90792772  0.34579024     0.93600
O682        O  0.17442235  0.89606732  0.35375403    -0.82500
O683        O  0.34557649  0.87122004  0.09631249    -0.82000
C684        C  0.37442799  0.81622686  0.17822688     0.97400
O685        O  0.38115194  0.81196840  0.15664389    -0.71100
O686        O  0.34340507  0.80818304  0.12829018    -0.74700
Al687      Al  0.37205049  0.82715257  0.12637081     1.49000
C688        C  0.32242019  0.81364071  0.12093891     0.92600
O689        O  0.31317408  0.86108978  0.15647675    -0.80900
O690        O  0.37506677  0.89742683  0.15175544    -0.74400
Al691      Al  0.33100020  0.86574682  0.12714070     1.90100
O692        O  0.34047993  0.87603536  0.18096116    -0.73500
O693        O  0.40402570  0.85942193  0.15890726    -0.73400
O694        O  0.36713270  0.83707846  0.18431239    -0.79000
O695        O  0.40279577  0.84257961  0.12302155    -0.77200
O696        O  0.35805586  0.85316189  0.13982387    -1.13400
O697        O  0.36550751  0.83674775  0.09330497    -0.72600
C698        C  0.35650191  0.85557724  0.08352811     0.98200
C699        C  0.31911243  0.86858667  0.17732318     0.94600
Al700      Al  0.37071258  0.86635280  0.16661037     1.55600
O701        O  0.31702936  0.83550924  0.11652420    -0.77200
C702        C  0.41483666  0.85216604  0.13998354     0.98700
C703        C  0.35785561  0.90970187  0.14266515     0.93600
O704        O  0.33888684  0.89905803  0.13502105    -0.82500
C705        C  0.30112605  0.86822294  0.19765583    -0.12100
C706        C  0.30706171  0.87560328  0.22172104     0.03300
C707        C  0.28962987  0.87399337  0.24017897    -0.12700
C708        C  0.26636543  0.86484430  0.23554016     0.18200
C709        C  0.26041564  0.85706488  0.21195583    -0.09700
C710        C  0.27762647  0.85888727  0.19327090    -0.02700
H711        H  0.29425009  0.87993566  0.25837688     0.04700
C712        C  0.24824152  0.86475954  0.25537259     0.20200
H713        H  0.27259296  0.85268862  0.17527812     0.09900
C714        C  0.23400020  0.88557533  0.25907105    -0.16000
C715        C  0.21683927  0.88648755  0.27781414     0.02900
C716        C  0.21369448  0.86626386  0.29325730    -0.11400
C717        C  0.22844116  0.84562437  0.28992294    -0.01400
C718        C  0.24560880  0.84474860  0.27109533    -0.06600
H719        H  0.23635297  0.90123673  0.24736932     0.05900
H720        H  0.22621122  0.82994296  0.30163248     0.09300
Br721      Br  0.22905227  0.84361437  0.20461754    -0.06300
Br722      Br  0.33841009  0.88763629  0.23159352    -0.03200
Br723      Br  0.19921665  0.91630940  0.28234773    -0.00400
Br724      Br  0.26493975  0.81592616  0.26728505    -0.04700
C725        C  0.37551202  0.79669978  0.19662571    -0.12100
C726        C  0.35635240  0.79284399  0.21329230     0.03300
C727        C  0.35834896  0.77459355  0.23088796    -0.12700
C728        C  0.37914627  0.75986374  0.23215501     0.18200
C729        C  0.39802314  0.76330575  0.21520311    -0.09700
C730        C  0.39606964  0.78156299  0.19758022    -0.02700
H731        H  0.34349388  0.77167834  0.24350223     0.04700
C732        C  0.38051079  0.74064988  0.25092667     0.20200
H733        H  0.41086233  0.78423592  0.18485364     0.09900
C734        C  0.37870480  0.71620388  0.24395647    -0.16000
C735        C  0.37911195  0.69752723  0.26125285     0.02900
C736        C  0.38129428  0.70326050  0.28628601    -0.11400
C737        C  0.38375391  0.72786921  0.29300653    -0.01400
C738        C  0.38313584  0.74643371  0.27567145    -0.06600
H739        H  0.37679096  0.71165043  0.22489654     0.05900
H740        H  0.38549710  0.73287636  0.31196448     0.09300
Br741      Br  0.42711884  0.74403184  0.21596486    -0.06300
Br742      Br  0.32629443  0.81056675  0.21178800    -0.03200
Br743      Br  0.37718124  0.66486521  0.24894621    -0.00400
Br744      Br  0.38598269  0.77944129  0.28667852    -0.04700
C745        C  0.30636853  0.70999598  0.36386754    -0.12100
C746        C  0.30408121  0.72931373  0.34705513     0.03300
C747        C  0.28393603  0.74490177  0.34829032    -0.12700
C748        C  0.26577251  0.74145953  0.36582230     0.18200
C749        C  0.26783617  0.72221031  0.38242056    -0.09700
C750        C  0.28801169  0.70678318  0.38143900    -0.02700
H751        H  0.28222360  0.75958651  0.33529044     0.04700
C752        C  0.24477930  0.75816499  0.36651280     0.20200
H753        H  0.28917843  0.69199896  0.39438052     0.09900
C754        C  0.22449025  0.75348776  0.35182989    -0.16000
C755        C  0.20469284  0.76955414  0.35130466     0.02900
C756        C  0.20518118  0.79095586  0.36571099    -0.11400
C757        C  0.22544331  0.79507888  0.38084914    -0.01400
C758        C  0.24505391  0.77893044  0.38133921    -0.06600
H759        H  0.22423790  0.73738096  0.34043250     0.05900
H760        H  0.22627571  0.81118280  0.39220262     0.09300
Br761      Br  0.24323519  0.71606561  0.40636935    -0.06300
Br762      Br  0.32646991  0.73439716  0.32081743    -0.03200
Br763      Br  0.17854665  0.76144446  0.32951522    -0.00400
Br764      Br  0.27212353  0.78615551  0.40215740    -0.04700
C765        C  0.20899023  0.70594498  0.11951440    -0.12100
C766        C  0.22455843  0.70722432  0.09915835     0.03300
C767        C  0.24321522  0.72461341  0.09854723    -0.12700
C768        C  0.24651989  0.74091134  0.11792508     0.18200
C769        C  0.23009481  0.74045641  0.13757645    -0.09700
C770        C  0.21164098  0.72301801  0.13828438    -0.02700
H771        H  0.25528174  0.72532538  0.08301154     0.04700
C772        C  0.26701849  0.75838730  0.11741888     0.20200
H773        H  0.19958333  0.72250985  0.15384110     0.09900
C774        C  0.26689900  0.77743248  0.10047721    -0.16000
C775        C  0.28513262  0.79525824  0.10073152     0.02900
C776        C  0.30381773  0.79428227  0.11837737    -0.11400
C777        C  0.30449706  0.77447177  0.13450097    -0.01400
C778        C  0.28645028  0.75655536  0.13402067    -0.06600
H779        H  0.25238428  0.77858974  0.08718522     0.05900
H780        H  0.31889890  0.77312379  0.14789724     0.09300
Br781      Br  0.23177127  0.76358018  0.16368403    -0.06300
Br782      Br  0.22018599  0.68676459  0.07118592    -0.03200
Br783      Br  0.28420713  0.81958560  0.07573840    -0.00400
Br784      Br  0.28929237  0.72972352  0.15617327    -0.04700
C785        C  0.13537062  0.70269331  0.19964323    -0.12100
C786        C  0.11802039  0.72164308  0.19772190     0.03300
C787        C  0.11727213  0.73996937  0.21536309    -0.12700
C788        C  0.13351410  0.73985426  0.23496863     0.18200
C789        C  0.15034695  0.72073712  0.23732227    -0.09700
C790        C  0.15114747  0.70236237  0.21978423    -0.02700
H791        H  0.10407003  0.75453937  0.21368671     0.04700
C792        C  0.13298796  0.76010551  0.25254142     0.20200
H793        H  0.16455049  0.68800132  0.22168362     0.09900
C794        C  0.11552146  0.76019370  0.27106498    -0.16000
C795        C  0.11502653  0.77882152  0.28841626     0.02900
C796        C  0.13237793  0.79782103  0.28732173    -0.11400
C797        C  0.14934057  0.79796030  0.26819469    -0.01400
C798        C  0.14974916  0.77933456  0.25092606    -0.06600
H799        H  0.10227612  0.74558088  0.27208957     0.05900
H800        H  0.16281800  0.81233628  0.26696858     0.09300
Br801      Br  0.17267015  0.71916296  0.26411378    -0.06300
Br802      Br  0.09417484  0.72324827  0.17220704    -0.03200
Br803      Br  0.08958318  0.77762260  0.31233740    -0.00400
Br804      Br  0.17359056  0.78075458  0.22548285    -0.04700
C805        C  0.30246135  0.63315152  0.29277444    -0.12100
C806        C  0.27894256  0.64353282  0.29529582     0.03300
C807        C  0.26241284  0.64233676  0.27597358    -0.12700
C808        C  0.26871035  0.63125490  0.25392038     0.18200
C809        C  0.29213943  0.62136702  0.25112641    -0.09700
C810        C  0.30864216  0.62221902  0.27043197    -0.02700
H811        H  0.24452272  0.65040804  0.27803985     0.04700
C812        C  0.25071962  0.63077062  0.23391114     0.20200
H813        H  0.32652431  0.61433407  0.26777377     0.09900
C814        C  0.25482287  0.64486672  0.21310789    -0.16000
C815        C  0.23775076  0.64569025  0.19422772     0.02900
C816        C  0.21595884  0.63197635  0.19596123    -0.11400
C817        C  0.21206776  0.61781380  0.21690556    -0.01400
C818        C  0.22910569  0.61721234  0.23576068    -0.06600
H819        H  0.27124380  0.65568588  0.21178405     0.05900
H820        H  0.19562526  0.60712541  0.21873530     0.09300
Br821      Br  0.30239029  0.60621320  0.22140931    -0.06300
Br822      Br  0.26798143  0.66055805  0.32381794    -0.03200
Br823      Br  0.24508764  0.66716859  0.16765558    -0.00400
Br824      Br  0.22213543  0.59736996  0.26358531    -0.04700
C825        C  0.35737592  0.43826356  0.34782662    -0.12100
C826        C  0.35680088  0.45332103  0.32698654     0.03300
C827        C  0.35915488  0.47851116  0.32945523    -0.12700
C828        C  0.36180041  0.48924905  0.35236744     0.18200
C829        C  0.36212359  0.47444806  0.37319774    -0.09700
C830        C  0.35998405  0.44915175  0.37082852    -0.02700
H831        H  0.35823712  0.48991193  0.31342040     0.04700
C832        C  0.36198340  0.51606515  0.35397340     0.20200
H833        H  0.36033578  0.43796316  0.38702695     0.09900
C834        C  0.33970556  0.52824116  0.35563174    -0.16000
C835        C  0.33847753  0.55358480  0.35417196     0.02900
C836        C  0.36010015  0.56740743  0.35133142    -0.11400
C837        C  0.38251460  0.55502830  0.35011988    -0.01400
C838        C  0.38353786  0.52957066  0.35131347    -0.06600
H839        H  0.32303083  0.51784425  0.35713736     0.05900
H840        H  0.39927713  0.56512919  0.34787008     0.09300
Br841      Br  0.36502458  0.48812767  0.40512329    -0.06300
Br842      Br  0.35062266  0.44113857  0.29482373    -0.03200
Br843      Br  0.30629204  0.56739127  0.35383852    -0.00400
Br844      Br  0.41455729  0.51382743  0.34846937    -0.04700
C845        C  0.35950396  0.93677945  0.14151354    -0.12100
C846        C  0.33852565  0.95172523  0.14283828     0.03300
C847        C  0.34071141  0.97707043  0.14145961    -0.12700
C848        C  0.36349947  0.98828736  0.13928542     0.18200
C849        C  0.38453624  0.97359518  0.13879486    -0.09700
C850        C  0.38242497  0.94811920  0.13976894    -0.02700
H851        H  0.32447293  0.98821525  0.14266643     0.04700
C852        C  0.36465154  0.01535809  0.13894420     0.20200
H853        H  0.39879728  0.93713423  0.13906873     0.09900
C854        C  0.37262728  0.02776335  0.15969255    -0.16000
C855        C  0.37131632  0.05320553  0.16129017     0.02900
C856        C  0.36181174  0.06705086  0.14158982    -0.11400
C857        C  0.35455392  0.05440980  0.12049489    -0.01400
C858        C  0.35580068  0.02893439  0.11912911    -0.06600
H859        H  0.37926160  0.01745889  0.17512947     0.05900
H860        H  0.34740118  0.06430380  0.10503833     0.09300
Br861      Br  0.41644006  0.98755011  0.13654201    -0.06300
Br862      Br  0.30644540  0.93913042  0.14875758    -0.03200
Br863      Br  0.38205988  0.06698839  0.19158023    -0.00400
Br864      Br  0.34506123  0.01333453  0.08984385    -0.04700
C865        C  0.37606398  0.21100859  0.19526383    -0.12100
C866        C  0.36730687  0.23513059  0.19233010     0.03300
C867        C  0.36834324  0.25151469  0.21184918    -0.12700
C868        C  0.37808868  0.24460137  0.23435659     0.18200
C869        C  0.38733954  0.22096230  0.23719896    -0.09700
C870        C  0.38628233  0.20448822  0.21786632    -0.02700
H871        H  0.36123896  0.26975758  0.20955430     0.04700
C872        C  0.37784507  0.26209001  0.25484451     0.20200
H873        H  0.39336907  0.18633574  0.22074263     0.09900
C874        C  0.36149385  0.25854545  0.27408451    -0.16000
C875        C  0.36007949  0.27515839  0.29335797     0.02900
C876        C  0.37549385  0.29578421  0.29368531    -0.11400
C877        C  0.39196201  0.29909686  0.27437852    -0.01400
C878        C  0.39318343  0.28254397  0.25510406    -0.06600
H879        H  0.34938290  0.24299356  0.27381685     0.05900
H880        H  0.40393184  0.31475255  0.27417073     0.09300
Br881      Br  0.40197745  0.21049228  0.26708615    -0.06300
Br882      Br  0.35333443  0.24731695  0.16270280    -0.03200
Br883      Br  0.33536364  0.26940892  0.31737101    -0.00400
Br884      Br  0.41625390  0.28847130  0.22963112    -0.04700
C885        C  0.15061237  0.43521352  0.14509712    -0.12100
C886        C  0.15065116  0.44934353  0.16662276     0.03300
C887        C  0.15053184  0.47469235  0.16512032    -0.12700
C888        C  0.15070414  0.48645499  0.14257607     0.18200
C889        C  0.15105425  0.47253625  0.12111979    -0.09700
C890        C  0.15085447  0.44712685  0.12249723    -0.02700
H891        H  0.15086582  0.48536125  0.18168335     0.04700
C892        C  0.15218566  0.51324053  0.14210003     0.20200
H893        H  0.15119567  0.43665055  0.10582276     0.09900
C894        C  0.17375603  0.52440368  0.14985848    -0.16000
C895        C  0.17567419  0.54971076  0.15079185     0.02900
C896        C  0.15578938  0.56428520  0.14363091    -0.11400
C897        C  0.13403945  0.55310532  0.13627331    -0.01400
C898        C  0.13210319  0.52773325  0.13552683    -0.06600
H899        H  0.18902772  0.51333296  0.15561492     0.05900
H900        H  0.11851945  0.56413782  0.13115872     0.09300
Br901      Br  0.15318853  0.48742296  0.08967206    -0.06300
Br902      Br  0.15314943  0.43562393  0.19867963    -0.03200
Br903      Br  0.20503478  0.56326437  0.16410003    -0.00400
Br904      Br  0.10144004  0.51365814  0.12657648    -0.04700
C905        C  0.20296695  0.36855369  0.20389573    -0.12100
C906        C  0.20026845  0.35771877  0.22713904     0.03300
C907        C  0.21933036  0.35908431  0.24398949    -0.12700
C908        C  0.24108233  0.37107415  0.23828045     0.18200
C909        C  0.24366995  0.38220614  0.21548909    -0.09700
C910        C  0.22478062  0.38091810  0.19860539    -0.02700
H911        H  0.21734722  0.35041540  0.26155276     0.04700
C912        C  0.26126910  0.37109641  0.25595201     0.20200
H913        H  0.22733556  0.38962301  0.18114822     0.09900
C914        C  0.28191132  0.35689799  0.25122727    -0.16000
C915        C  0.30150052  0.35639716  0.26745337     0.02900
C916        C  0.30058739  0.37050453  0.28899522    -0.11400
C917        C  0.27973375  0.38469860  0.29355319    -0.01400
C918        C  0.26020490  0.38503809  0.27730901    -0.06600
H919        H  0.28265974  0.34594663  0.23484558     0.05900
H920        H  0.27854027  0.39567870  0.30987697     0.09300
Br921      Br  0.27260531  0.39966984  0.20673118    -0.06300
Br922      Br  0.17183400  0.33999645  0.23721284    -0.03200
Br923      Br  0.32798928  0.33501579  0.25931449    -0.00400
Br924      Br  0.23268053  0.40519518  0.28477652    -0.04700
C925        C  0.20643484  0.29634964  0.12263938    -0.12100
C926        C  0.20029363  0.27140671  0.12047050     0.03300
C927        C  0.21871282  0.25384753  0.11933651    -0.12700
C928        C  0.24333342  0.26037174  0.12078570     0.18200
C929        C  0.24954053  0.28514878  0.12258701    -0.09700
C930        C  0.23121202  0.30280581  0.12345651    -0.02700
H931        H  0.21377686  0.23480311  0.11789951     0.04700
C932        C  0.26212004  0.24097733  0.12111821     0.20200
H933        H  0.23644955  0.32174385  0.12510638     0.09900
C934        C  0.27905302  0.23938759  0.10208620    -0.16000
C935        C  0.29703810  0.22130228  0.10197817     0.02900
C936        C  0.29796319  0.20404639  0.12096998    -0.11400
C937        C  0.28072185  0.20542509  0.13975307    -0.01400
C938        C  0.26309744  0.22379021  0.14009605    -0.06600
H939        H  0.27826631  0.25230853  0.08724393     0.05900
H940        H  0.28144301  0.19260569  0.15468812     0.09300
Br941      Br  0.28269756  0.29578087  0.12529625    -0.06300
Br942      Br  0.16743979  0.25943431  0.12067365    -0.03200
Br943      Br  0.31909616  0.22051928  0.07492313    -0.00400
Br944      Br  0.24168933  0.22543003  0.16763269    -0.04700
C945        C  0.15572655  0.93481436  0.34857956    -0.12100
C946        C  0.17711769  0.94905770  0.35088444     0.03300
C947        C  0.17539918  0.97441279  0.35235340    -0.12700
C948        C  0.15276511  0.98614355  0.35192217     0.18200
C949        C  0.13143887  0.97205960  0.35020381    -0.09700
C950        C  0.13304012  0.94669587  0.34841664    -0.02700
H951        H  0.19190433  0.98513528  0.35333545     0.04700
C952        C  0.15200718  0.01310052  0.35138223     0.20200
H953        H  0.11641428  0.93621896  0.34700257     0.09900
C954        C  0.14460179  0.02469526  0.32999348    -0.16000
C955        C  0.14515352  0.05003942  0.32784013     0.02900
C956        C  0.15305288  0.06458182  0.34772406    -0.11400
C957        C  0.16032187  0.05273422  0.36923491    -0.01400
C958        C  0.16000930  0.02731013  0.37109965    -0.06600
H959        H  0.13890921  0.01383145  0.31456708     0.05900
H960        H  0.16655042  0.06323426  0.38468192     0.09300
Br961      Br  0.09971798  0.98665011  0.35079681    -0.06300
Br962      Br  0.20945791  0.93567679  0.35075963    -0.03200
Br963      Br  0.13602352  0.06264584  0.29651256    -0.00400
Br964      Br  0.17055256  0.01277657  0.40098690    -0.04700
C965        C  0.29994632  0.29920629  0.36868126    -0.12100
C966        C  0.30166423  0.28103093  0.38681198     0.03300
C967        C  0.28526090  0.26153164  0.38681720    -0.12700
C968        C  0.26707095  0.25978573  0.36905929     0.18200
C969        C  0.26484223  0.27821219  0.35148735    -0.09700
C970        C  0.28116623  0.29769376  0.35140585    -0.02700
H971        H  0.28668218  0.24764659  0.40074115     0.04700
C972        C  0.24999793  0.23906458  0.36939761     0.20200
H973        H  0.27950110  0.31143116  0.33736705     0.09900
C974        C  0.23009256  0.23969607  0.38525256    -0.16000
C975        C  0.21219090  0.22162639  0.38443975     0.02900
C976        C  0.21409204  0.20243312  0.36738876    -0.11400
C977        C  0.23474972  0.20128534  0.35234710    -0.01400
C978        C  0.25258542  0.21941988  0.35321385    -0.06600
H979        H  0.22823430  0.25462590  0.39801078     0.05900
H980        H  0.23669133  0.18662092  0.33929455     0.09300
Br981      Br  0.23965808  0.27747323  0.32731806    -0.06300
Br982      Br  0.32505060  0.28236404  0.41276304    -0.03200
Br983      Br  0.18616097  0.22397110  0.40764849    -0.00400
Br984      Br  0.27990612  0.21700544  0.33163313    -0.04700
C985        C  0.20805696  0.13164099  0.28729141    -0.12100
C986        C  0.20649570  0.14639115  0.26619240     0.03300
C987        C  0.22517796  0.14589679  0.24897677    -0.12700
C988        C  0.24556069  0.13100178  0.25215281     0.18200
C989        C  0.24737046  0.11644179  0.27307550    -0.09700
C990        C  0.22872596  0.11682630  0.29039893    -0.02700
H991        H  0.22391553  0.15740211  0.23302911     0.04700
C992        C  0.26508771  0.13167427  0.23376755     0.20200
H993        H  0.23048424  0.10552906  0.30642545     0.09900
C994        C  0.27978395  0.15244244  0.23211616    -0.16000
C995        C  0.29822290  0.15395166  0.21469160     0.02900
C996        C  0.30232992  0.13424880  0.19876628    -0.11400
C997        C  0.28711877  0.11379033  0.19997165    -0.01400
C998        C  0.26851881  0.11243845  0.21723836    -0.06600
H999        H  0.27668919  0.16764458  0.24427643     0.05900
H1000       H  0.28973850  0.09878189  0.18746139     0.09300
Br1001     Br  0.27537896  0.09646685  0.27910639    -0.06300
Br1002     Br  0.18042674  0.16883132  0.25992926    -0.03200
Br1003     Br  0.31572255  0.18409944  0.21212478    -0.00400
Br1004     Br  0.24763919  0.08449039  0.21696554    -0.04700
C1005       C  0.13425297  0.20493178  0.28981609    -0.12100
C1006       C  0.11494391  0.20420570  0.27284089     0.03300
C1007       C  0.11455442  0.22067913  0.25351922    -0.12700
C1008       C  0.13316866  0.23781536  0.25072124     0.18200
C1009       C  0.15229513  0.23872670  0.26765808    -0.09700
C1010       C  0.15266421  0.22243224  0.28709696    -0.02700
H1011       H  0.09954228  0.22030598  0.24073035     0.04700
C1012       C  0.13149941  0.25573100  0.23098786     0.20200
H1013       H  0.16769025  0.22311470  0.29985233     0.09900
C1014       C  0.11669945  0.27615425  0.23430570    -0.16000
C1015       C  0.11552169  0.29439758  0.21670593     0.02900
C1016       C  0.12929617  0.29213927  0.19505050    -0.11400
C1017       C  0.14362857  0.27116935  0.19163302    -0.01400
C1018       C  0.14487755  0.25310462  0.20941608    -0.06600
H1019       H  0.10631288  0.27808821  0.25093263     0.05900
H1020       H  0.15453398  0.26908236  0.17538256     0.09300
Br1021     Br  0.17809843  0.26209019  0.26500094    -0.06300
Br1022     Br  0.08785961  0.18228236  0.27575812    -0.03200
Br1023     Br  0.09456014  0.32149074  0.22381435    -0.00400
Br1024     Br  0.16547160  0.22546443  0.20378324    -0.04700
C1025       C  0.93643709  0.36210035  0.14318975    -0.12100
C1026       C  0.94918343  0.35487968  0.12195166     0.03300
C1027       C  0.97464118  0.35463812  0.12192105    -0.12700
C1028       C  0.98786044  0.36151358  0.14255135     0.18200
C1029       C  0.97539900  0.36945014  0.16337696    -0.09700
C1030       C  0.94997090  0.36977094  0.16355248    -0.02700
H1031       H  0.98425242  0.34874051  0.10576353     0.04700
C1032       C  0.01463802  0.35954334  0.14218177     0.20200
H1033       H  0.94080767  0.37535049  0.18007053     0.09900
C1034       C  0.02878555  0.38060827  0.13976306    -0.16000
C1035       C  0.05423513  0.37923699  0.13933618     0.02900
C1036       C  0.06585803  0.35640158  0.14136272    -0.11400
C1037       C  0.05153097  0.33532493  0.14333978    -0.01400
C1038       C  0.02615096  0.33675868  0.14385949    -0.06600
H1039       H  0.01996308  0.39816156  0.13811406     0.05900
H1040       H  0.06011690  0.31767243  0.14519704     0.09300
Br1041     Br  0.99233824  0.37873135  0.19243359    -0.06300
Br1042     Br  0.93359794  0.34518502  0.09217601    -0.03200
Br1043     Br  0.07197807  0.40895647  0.13471770    -0.00400
Br1044     Br  0.00793469  0.30724342  0.14785741    -0.04700
C1045       C  0.94146197  0.15361994  0.35218108    -0.12100
C1046       C  0.95373840  0.14600059  0.37339838     0.03300
C1047       C  0.97921708  0.14415869  0.37336130    -0.12700
C1048       C  0.99268036  0.15009622  0.35252505     0.18200
C1049       C  0.98040314  0.15758374  0.33137903    -0.09700
C1050       C  0.95504785  0.15910679  0.33128952    -0.02700
H1051       H  0.98857831  0.13831985  0.38967909     0.04700
C1052       C  0.01955424  0.14931235  0.35317604     0.20200
H1053       H  0.94590748  0.16508709  0.31489004     0.09900
C1054       C  0.03174982  0.12715208  0.34985323    -0.16000
C1055       C  0.05724190  0.12627416  0.34832777     0.02900
C1056       C  0.07094498  0.14804569  0.35007027    -0.11400
C1057       C  0.05843874  0.17004285  0.35422833    -0.01400
C1058       C  0.03310672  0.17078588  0.35578848    -0.06600
H1059       H  0.02133836  0.11050781  0.34803081     0.05900
H1060       H  0.06832308  0.18702208  0.35576078     0.09300
Br1061     Br  0.99755969  0.16622138  0.30225813    -0.06300
Br1062     Br  0.93664321  0.13686674  0.40241373    -0.03200
Br1063     Br  0.07180484  0.09473701  0.34434112    -0.00400
Br1064     Br  0.01768952  0.20168155  0.36105802    -0.04700
C1065       C  0.87281718  0.30784499  0.20640468    -0.12100
C1066       C  0.88385278  0.28478626  0.20221495     0.03300
C1067       C  0.88454025  0.26737067  0.22074601    -0.12700
C1068       C  0.87421457  0.27196282  0.24349357     0.18200
C1069       C  0.86331270  0.29469732  0.24790127    -0.09700
C1070       C  0.86282025  0.31242644  0.22955662    -0.02700
H1071       H  0.89282525  0.24980927  0.21723077     0.04700
C1072       C  0.87409488  0.25223607  0.26185439     0.20200
H1073       H  0.85408397  0.32969988  0.23333593     0.09900
C1074       C  0.89443493  0.24876320  0.27690548    -0.16000
C1075       C  0.89517631  0.22952298  0.29365525     0.02900
C1076       C  0.87529506  0.21336350  0.29548348    -0.11400
C1077       C  0.85519766  0.21663825  0.28003091    -0.01400
C1078       C  0.85447710  0.23586033  0.26336781    -0.06600
H1079       H  0.90991403  0.26089357  0.27538655     0.05900
H1080       H  0.83981536  0.20433391  0.28112338     0.09300
Br1081     Br  0.84833707  0.30195776  0.27852708    -0.06300
Br1082     Br  0.89824689  0.27492584  0.17188518    -0.03200
Br1083     Br  0.92442966  0.22502302  0.31222411    -0.00400
Br1084     Br  0.82648794  0.23894268  0.24274041    -0.04700
C1085       C  0.43993076  0.35823591  0.34803030    -0.12100
C1086       C  0.45241326  0.38071321  0.34831178     0.03300
C1087       C  0.47791192  0.38103285  0.34933857    -0.12700
C1088       C  0.49136356  0.35931134  0.34982583     0.18200
C1089       C  0.47894139  0.33694455  0.34943296    -0.09700
C1090       C  0.45354618  0.33657264  0.34871580    -0.02700
H1091       H  0.48732722  0.39833291  0.34989336     0.04700
C1092       C  0.51827990  0.36024103  0.35113038     0.20200
H1093       H  0.44441553  0.31912234  0.34812005     0.09900
C1094       C  0.53018443  0.35073316  0.37162274    -0.16000
C1095       C  0.55562744  0.35032070  0.37305126     0.02900
C1096       C  0.56961882  0.36022278  0.35397730    -0.11400
C1097       C  0.55760892  0.37029495  0.33377750    -0.01400
C1098       C  0.53223393  0.37008462  0.33208197    -0.06600
H1099       H  0.51958215  0.34328220  0.38645782     0.05900
H1100       H  0.56805190  0.37748439  0.31869351     0.09300
Br1101     Br  0.49580186  0.30634562  0.34864700    -0.06300
Br1102     Br  0.43591397  0.41152619  0.34847440    -0.03200
Br1103     Br  0.57004762  0.33652010  0.40168014    -0.00400
Br1104     Br  0.51766267  0.38179164  0.30260809    -0.04700
C1105       C  0.80353051  0.21336434  0.37391482    -0.12100
C1106       C  0.80881526  0.23818575  0.37808999     0.03300
C1107       C  0.79000080  0.25535868  0.37797804    -0.12700
C1108       C  0.76581927  0.24828957  0.37412574     0.18200
C1109       C  0.76033248  0.22353945  0.37083204    -0.09700
C1110       C  0.77908158  0.20631978  0.37088458    -0.02700
H1111       H  0.79423961  0.27437884  0.38092103     0.04700
C1112       C  0.74673120  0.26716420  0.37299846     0.20200
H1113       H  0.77454975  0.18740155  0.36770484     0.09900
C1114       C  0.74378299  0.28048633  0.35148911    -0.16000
C1115       C  0.72637190  0.29899223  0.34991116     0.02900
C1116       C  0.71163218  0.30444214  0.37019260    -0.11400
C1117       C  0.71434209  0.29079873  0.39158623    -0.01400
C1118       C  0.73188889  0.27239711  0.39316623    -0.06600
H1119       H  0.75502373  0.27636459  0.33582083     0.05900
H1120       H  0.70305031  0.29475692  0.40725846     0.09300
Br1121     Br  0.72763138  0.21259681  0.36532809    -0.06300
Br1122     Br  0.84097050  0.24980266  0.38529623    -0.03200
Br1123     Br  0.72246116  0.31514283  0.31919887    -0.00400
Br1124     Br  0.73545040  0.25525005  0.42330332    -0.04700
C1125       C  0.70484843  0.37808082  0.29109725    -0.12100
C1126       C  0.70250572  0.36499953  0.26900558     0.03300
C1127       C  0.72013576  0.36756149  0.25087943    -0.12700
C1128       C  0.74040431  0.38255243  0.25435687     0.18200
C1129       C  0.74282517  0.39565093  0.27616632    -0.09700
C1130       C  0.72514097  0.39338024  0.29427253    -0.02700
H1131       H  0.71844192  0.35718272  0.23422659     0.04700
C1132       C  0.75950725  0.38299923  0.23556206     0.20200
H1133       H  0.72734617  0.40363391  0.31093578     0.09900
C1134       C  0.75533018  0.39533782  0.21362220    -0.16000
C1135       C  0.77279212  0.39500467  0.19508187     0.02900
C1136       C  0.79475602  0.38225952  0.19856737    -0.11400
C1137       C  0.79896621  0.37018311  0.22059294    -0.01400
C1138       C  0.78142390  0.37017696  0.23890018    -0.06600
H1139       H  0.73843641  0.40516248  0.21092661     0.05900
H1140       H  0.81569693  0.36006349  0.22326523     0.09300
Br1141     Br  0.77003977  0.41673391  0.28200810    -0.06300
Br1142     Br  0.67699229  0.34191016  0.26266960    -0.03200
Br1143     Br  0.76638806  0.41297154  0.16587867    -0.00400
Br1144     Br  0.78762112  0.35127255  0.26756153    -0.04700
C1145       C  0.56957340  0.15309082  0.14452491    -0.12100
C1146       C  0.55653101  0.16274952  0.12442964     0.03300
C1147       C  0.53126776  0.16027744  0.12336347    -0.12700
C1148       C  0.51835393  0.14898571  0.14212195     0.18200
C1149       C  0.53112138  0.13892944  0.16184596    -0.09700
C1150       C  0.55647181  0.14087342  0.16283063    -0.02700
H1151       H  0.52144415  0.16801051  0.10813093     0.04700
C1152       C  0.49150728  0.14947052  0.14144293     0.20200
H1153       H  0.56585364  0.13330659  0.17840222     0.09900
C1154       C  0.47841905  0.12772377  0.13877760    -0.16000
C1155       C  0.45293084  0.12784363  0.13829069     0.02900
C1156       C  0.44025706  0.15010857  0.14032578    -0.11400
C1157       C  0.45350422  0.17184397  0.14230610    -0.01400
C1158       C  0.47884838  0.17167241  0.14304870    -0.06600
H1159       H  0.48808673  0.11063085  0.13707947     0.05900
H1160       H  0.44408821  0.18906934  0.14414189     0.09300
Br1161     Br  0.51465752  0.12383935  0.18864323    -0.06300
Br1162     Br  0.57103388  0.18068840  0.09813550    -0.03200
Br1163     Br  0.43660341  0.09728377  0.13376096    -0.00400
Br1164     Br  0.49523044  0.20219344  0.14762203    -0.04700
C1165       C  0.70757612  0.21172539  0.12930395    -0.12100
C1166       C  0.71468715  0.22445035  0.15033029     0.03300
C1167       C  0.73250429  0.24241911  0.14870337    -0.12700
C1168       C  0.74342941  0.24784836  0.12634345     0.18200
C1169       C  0.73685056  0.23457982  0.10545200    -0.09700
C1170       C  0.71900697  0.21656168  0.10707925    -0.02700
H1171       H  0.73799490  0.25212659  0.16496062     0.04700
C1172       C  0.76208506  0.26701329  0.12547672     0.20200
H1173       H  0.71366702  0.20666268  0.09088790     0.09900
C1174       C  0.78640281  0.26047059  0.12157986    -0.16000
C1175       C  0.80478578  0.27797675  0.12204990     0.02900
C1176       C  0.79885868  0.30253069  0.12678282    -0.11400
C1177       C  0.77437666  0.30909818  0.13005621    -0.01400
C1178       C  0.75603325  0.29154974  0.12951621    -0.06600
H1179       H  0.79109995  0.24158098  0.11830508     0.05900
H1180       H  0.76952404  0.32789956  0.13359360     0.09300
Br1181     Br  0.75107937  0.24101438  0.07428015    -0.06300
Br1182     Br  0.70174400  0.21683533  0.18185284    -0.03200
Br1183     Br  0.83729948  0.26727428  0.11491492    -0.00400
Br1184     Br  0.72298988  0.30190848  0.13420030    -0.04700
C1185       C  0.71258352  0.13627435  0.20040354    -0.12100
C1186       C  0.73741505  0.14137912  0.19522721     0.03300
C1187       C  0.75465239  0.14113083  0.21399505    -0.12700
C1188       C  0.74784135  0.13590058  0.23792464     0.18200
C1189       C  0.72345630  0.13042555  0.24312754    -0.09700
C1190       C  0.70613083  0.13059678  0.22453108    -0.02700
H1191       H  0.77349475  0.14530642  0.20996279     0.04700
C1192       C  0.76625067  0.13690879  0.25743443     0.20200
H1193       H  0.68741447  0.12657643  0.22916733     0.09900
C1194       C  0.76765599  0.15773413  0.27207940    -0.16000
C1195       C  0.78461441  0.15920133  0.29099094     0.02900
C1196       C  0.80033051  0.13944330  0.29559589    -0.11400
C1197       C  0.79919043  0.11880469  0.28059819    -0.01400
C1198       C  0.78227705  0.11740791  0.26164990    -0.06600
H1199       H  0.75563689  0.17299492  0.26860672     0.05900
H1200       H  0.81138803  0.10361594  0.28376767     0.09300
Br1201     Br  0.71307547  0.12260964  0.27547690    -0.06300
Br1202     Br  0.74965483  0.14903428  0.16339336    -0.03200
Br1203     Br  0.78687290  0.18928672  0.30855242    -0.00400
Br1204     Br  0.78139923  0.08846050  0.24221212    -0.04700
C1205       C  0.63390797  0.21058622  0.20645028    -0.12100
C1206       C  0.63485937  0.23580267  0.20114584     0.03300
C1207       C  0.63394092  0.25281405  0.22007112    -0.12700
C1208       C  0.63208363  0.24531433  0.24431103     0.18200
C1209       C  0.63044705  0.22035918  0.24962179    -0.09700
C1210       C  0.63156494  0.20326925  0.23082767    -0.02700
H1211       H  0.63523054  0.27203616  0.21590793     0.04700
C1212       C  0.63266526  0.26377676  0.26383131     0.20200
H1213       H  0.63046812  0.18412311  0.23533684     0.09900
C1214       C  0.61229232  0.27868605  0.26768711    -0.16000
C1215       C  0.61248958  0.29653229  0.28586486     0.02900
C1216       C  0.63338385  0.29963126  0.30042265    -0.11400
C1217       C  0.65363503  0.28453234  0.29668271    -0.01400
C1218       C  0.65351373  0.26689480  0.27839526    -0.06600
H1219       H  0.59614706  0.27630165  0.25661886     0.05900
H1220       H  0.66989423  0.28694679  0.30758176     0.09300
Br1221     Br  0.62632378  0.20885269  0.28227197    -0.06300
Br1222     Br  0.63896114  0.24857386  0.16890237    -0.03200
Br1223     Br  0.58337932  0.31518892  0.29102694    -0.00400
Br1224     Br  0.68259595  0.24821933  0.27327503    -0.04700
C1225       C  0.44422997  0.64474638  0.35107295    -0.12100
C1226       C  0.45863667  0.63274251  0.33325850     0.03300
C1227       C  0.48388535  0.63145415  0.33608315    -0.12700
C1228       C  0.49539117  0.64155529  0.35638334     0.18200
C1229       C  0.48115725  0.65204141  0.37486016    -0.09700
C1230       C  0.45587205  0.65357891  0.37212793    -0.02700
H1231       H  0.49478191  0.62344411  0.32174413     0.04700
C1232       C  0.52215749  0.64426267  0.35595851     0.20200
H1233       H  0.44539805  0.66230932  0.38633762     0.09900
C1234       C  0.53174101  0.66771392  0.35333185    -0.16000
C1235       C  0.55663527  0.67140334  0.35000776     0.02900
C1236       C  0.57259820  0.65124035  0.34928521    -0.11400
C1237       C  0.56298771  0.62770804  0.35209564    -0.01400
C1238       C  0.53797815  0.62411106  0.35542567    -0.06600
H1239       H  0.51960572  0.68325090  0.35305505     0.05900
H1240       H  0.57497108  0.61205413  0.35180104     0.09300
Br1241     Br  0.49560713  0.66480548  0.40394833    -0.06300
Br1242     Br  0.44606067  0.61846943  0.30390077    -0.03200
Br1243     Br  0.56701083  0.70434214  0.34453522    -0.00400
Br1244     Br  0.52631243  0.59149281  0.35950867    -0.04700
C1245       C  0.65163658  0.44245686  0.35339595    -0.12100
C1246       C  0.67211645  0.45720580  0.35807905     0.03300
C1247       C  0.66979266  0.48252043  0.35787288    -0.12700
C1248       C  0.64735064  0.49358810  0.35291090     0.18200
C1249       C  0.62683100  0.47895190  0.34839676    -0.09700
C1250       C  0.62909997  0.45356093  0.34858414    -0.02700
H1251       H  0.68576006  0.49369110  0.36089213     0.04700
C1252       C  0.64639923  0.52039667  0.35100992     0.20200
H1253       H  0.61324956  0.44243997  0.34484686     0.09900
C1254       C  0.64567251  0.53114590  0.32795157    -0.16000
C1255       C  0.64785687  0.55636872  0.32515594     0.02900
C1256       C  0.65098997  0.57139445  0.34588956    -0.11400
C1257       C  0.65091962  0.56045448  0.36901888    -0.01400
C1258       C  0.64860188  0.53526051  0.37166509    -0.06600
H1259       H  0.64417680  0.51972862  0.31196366     0.05900
H1260       H  0.65283838  0.57151361  0.38519953     0.09300
Br1261     Br  0.59547773  0.49291988  0.34204097    -0.06300
Br1262     Br  0.70418879  0.44398558  0.36237114    -0.03200
Br1263     Br  0.64800150  0.56837824  0.29235236    -0.00400
Br1264     Br  0.64847415  0.52183903  0.40382745    -0.04700
C1265       C  0.57168148  0.85852036  0.14073471    -0.12100
C1266       C  0.55813071  0.87915822  0.13372390     0.03300
C1267       C  0.53264611  0.87792971  0.13282130    -0.12700
C1268       C  0.52036789  0.85647467  0.13914955     0.18200
C1269       C  0.53387953  0.83586799  0.14605870    -0.09700
C1270       C  0.55929817  0.83694098  0.14657671    -0.02700
H1271       H  0.52234066  0.89383070  0.12740374     0.04700
C1272       C  0.49345008  0.85605436  0.13911184     0.20200
H1273       H  0.56943358  0.82097772  0.15217807     0.09900
C1274       C  0.48089201  0.85133772  0.11745725    -0.16000
C1275       C  0.45537524  0.85028927  0.11697730     0.02900
C1276       C  0.44190101  0.85408907  0.13864646    -0.11400
C1277       C  0.45481149  0.85912592  0.16022363    -0.01400
C1278       C  0.48023512  0.86008844  0.16056897    -0.06600
H1279       H  0.49103778  0.84832936  0.10084657     0.05900
H1280       H  0.44515712  0.86200940  0.17713651     0.09300
Br1281     Br  0.51833232  0.80607172  0.15544093    -0.06300
Br1282     Br  0.57348781  0.90903257  0.12425574    -0.03200
Br1283     Br  0.44059222  0.84410584  0.08594425    -0.00400
Br1284     Br  0.49626669  0.86682226  0.19082434    -0.04700
C1285       C  0.64769342  0.94456495  0.13518811    -0.12100
C1286       C  0.66286818  0.95907331  0.12018323     0.03300
C1287       C  0.66014706  0.98439631  0.12016380    -0.12700
C1288       C  0.64246229  0.99566648  0.13459402     0.18200
C1289       C  0.62610688  0.98128164  0.14791343    -0.09700
C1290       C  0.62884046  0.95599750  0.14821649    -0.02700
H1291       H  0.67273901  0.99546911  0.10980303     0.04700
C1292       C  0.64363307  0.02223437  0.13825451     0.20200
H1293       H  0.61659178  0.94530541  0.15933594     0.09900
C1294       C  0.63300106  0.03808801  0.12131966    -0.16000
C1295       C  0.63469163  0.06334163  0.12446293     0.02900
C1296       C  0.64726189  0.07282968  0.14462357    -0.11400
C1297       C  0.65782057  0.05700463  0.16151841    -0.01400
C1298       C  0.65609394  0.03184796  0.15846829    -0.06600
H1299       H  0.62349759  0.03081868  0.10567781     0.05900
H1300       H  0.66768711  0.06425669  0.17695567     0.09300
Br1301     Br  0.60061501  0.99563175  0.16692801    -0.06300
Br1302     Br  0.68906181  0.94629721  0.10084578    -0.03200
Br1303     Br  0.61991603  0.08433102  0.10086119    -0.00400
Br1304     Br  0.67162227  0.01122050  0.18196984    -0.04700
C1305       C  0.63814071  0.71475756  0.29344399    -0.12100
C1306       C  0.65866078  0.72918402  0.28813041     0.03300
C1307       C  0.65752495  0.74648892  0.26949425    -0.12700
C1308       C  0.63598944  0.75023529  0.25622107     0.18200
C1309       C  0.61546543  0.73573722  0.26153148    -0.09700
C1310       C  0.61677968  0.71801857  0.27981200    -0.02700
H1311       H  0.67359520  0.75708574  0.26528020     0.04700
C1312       C  0.63557479  0.76910635  0.23681004     0.20200
H1313       H  0.60090466  0.70699426  0.28368717     0.09900
C1314       C  0.63128589  0.76224510  0.21259368    -0.16000
C1315       C  0.63169073  0.77943637  0.19378312     0.02900
C1316       C  0.63697985  0.80406515  0.19895623    -0.11400
C1317       C  0.64084397  0.81096353  0.22323899    -0.01400
C1318       C  0.64017298  0.79380516  0.24204193    -0.06600
H1319       H  0.62762536  0.74336782  0.20828850     0.05900
H1320       H  0.64475614  0.82977594  0.22761414     0.09300
Br1321     Br  0.58491757  0.74008781  0.24515827    -0.06300
Br1322     Br  0.68914843  0.72494296  0.30470003    -0.03200
Br1323     Br  0.62339036  0.76834610  0.16172234    -0.00400
Br1324     Br  0.64501781  0.80519871  0.27466323    -0.04700
C1325       C  0.85977511  0.57349906  0.13814862    -0.12100
C1326       C  0.85599003  0.56163324  0.11553856     0.03300
C1327       C  0.85618496  0.53613011  0.11433547    -0.12700
C1328       C  0.86015685  0.52210639  0.13521935     0.18200
C1329       C  0.86446734  0.53379980  0.15750565    -0.09700
C1330       C  0.86437309  0.55917313  0.15882211    -0.02700
H1331       H  0.85290659  0.52716922  0.09708899     0.04700
C1332       C  0.85835884  0.49529910  0.13410907     0.20200
H1333       H  0.86722229  0.56768601  0.17635462     0.09900
C1334       C  0.87955301  0.48119228  0.13200647    -0.16000
C1335       C  0.87861778  0.45578603  0.13426445     0.02900
C1336       C  0.85614545  0.44420901  0.13882687    -0.11400
C1337       C  0.83485622  0.45839518  0.13974447    -0.01400
C1338       C  0.83583660  0.48368776  0.13753590    -0.06600
H1339       H  0.89695838  0.49004617  0.12915079     0.05900
H1340       H  0.81738356  0.44984405  0.14306438     0.09300
Br1341     Br  0.86948541  0.51567521  0.18687277    -0.06300
Br1342     Br  0.85099442  0.57878565  0.08548956    -0.03200
Br1343     Br  0.90831394  0.43784674  0.13012521    -0.00400
Br1344     Br  0.80613552  0.50182066  0.14064298    -0.04700
C1345       C  0.94352716  0.65076680  0.13566163    -0.12100
C1346       C  0.95510788  0.62778712  0.13737697     0.03300
C1347       C  0.98056149  0.62631349  0.13701809    -0.12700
C1348       C  0.99482427  0.64726480  0.13459406     0.18200
C1349       C  0.98341638  0.66991429  0.13138769    -0.09700
C1350       C  0.95803290  0.67153610  0.13195225    -0.02700
H1351       H  0.98931150  0.60876667  0.13901258     0.04700
C1352       C  0.02155551  0.64538034  0.13665316     0.20200
H1353       H  0.94970022  0.68931936  0.13033140     0.09900
C1354       C  0.03567037  0.64229972  0.11568516    -0.16000
C1355       C  0.06112549  0.64163372  0.11708147     0.02900
C1356       C  0.07281939  0.64423471  0.13984398    -0.11400
C1357       C  0.05848664  0.64639820  0.16088986    -0.01400
C1358       C  0.03308090  0.64704975  0.15941675    -0.06600
H1359       H  0.02684018  0.64060154  0.09816242     0.05900
H1360       H  0.06706777  0.64847536  0.17849878     0.09300
Br1361     Br  0.00186241  0.69921864  0.12710835    -0.06300
Br1362     Br  0.93760308  0.59761025  0.13964059    -0.03200
Br1363     Br  0.07876200  0.63618167  0.08742461    -0.00400
Br1364     Br  0.01476581  0.65106271  0.18883968    -0.04700
C1365       C  0.80835191  0.64157468  0.20344370    -0.12100
C1366       C  0.81146760  0.65502397  0.22525878     0.03300
C1367       C  0.79308396  0.65499024  0.24287510    -0.12700
C1368       C  0.77152262  0.64191800  0.23925124     0.18200
C1369       C  0.76837428  0.62857327  0.21769011    -0.09700
C1370       C  0.78664499  0.62846354  0.20008762    -0.02700
H1371       H  0.79542515  0.66556503  0.25936207     0.04700
C1372       C  0.75200996  0.64290313  0.25765238     0.20200
H1373       H  0.78376349  0.61802962  0.18361671     0.09900
C1374       C  0.73037000  0.65510299  0.25203135    -0.16000
C1375       C  0.71053242  0.65471198  0.26791013     0.02900
C1376       C  0.71225130  0.64188841  0.29022795    -0.11400
C1377       C  0.73444806  0.63042419  0.29607367    -0.01400
C1378       C  0.75417163  0.63084524  0.28004389    -0.06600
H1379       H  0.72878400  0.66466680  0.23486192     0.05900
H1380       H  0.73648056  0.62073144  0.31310297     0.09300
Br1381     Br  0.73948565  0.60990034  0.21164427    -0.06300
Br1382     Br  0.83938295  0.67503139  0.23196777    -0.03200
Br1383     Br  0.68218436  0.67235492  0.25742202    -0.00400
Br1384     Br  0.78331403  0.61383394  0.28904862    -0.04700
C1385       C  0.80312237  0.71367357  0.12572251    -0.12100
C1386       C  0.78281788  0.71434544  0.14158919     0.03300
C1387       C  0.76629840  0.73361237  0.14020175    -0.12700
C1388       C  0.76942211  0.75229445  0.12325086     0.18200
C1389       C  0.78931498  0.75162999  0.10725396    -0.09700
C1390       C  0.80605063  0.73250310  0.10865774    -0.02700
H1391       H  0.75096037  0.73416396  0.15258420     0.04700
C1392       C  0.75167891  0.77236264  0.12281303     0.20200
H1393       H  0.82130375  0.73226046  0.09618027     0.09900
C1394       C  0.75707477  0.79407374  0.13499418    -0.16000
C1395       C  0.73981857  0.81275829  0.13668470     0.02900
C1396       C  0.71662659  0.80980119  0.12572032    -0.11400
C1397       C  0.71168879  0.78803769  0.11312578    -0.01400
C1398       C  0.72886416  0.76941658  0.11177821    -0.06600
H1399       H  0.77457203  0.79620350  0.14375792     0.05900
H1400       H  0.69423360  0.78522586  0.10447481     0.09300
Br1401     Br  0.79389731  0.77617520  0.08293378    -0.06300
Br1402     Br  0.77688233  0.69055921  0.16649329    -0.03200
Br1403     Br  0.74911013  0.84082888  0.15538813    -0.00400
Br1404     Br  0.72023840  0.74007002  0.09498416    -0.04700
C1405       C  0.94086953  0.86075644  0.35290355    -0.12100
C1406       C  0.95498713  0.84137963  0.36263658     0.03300
C1407       C  0.98034139  0.84324370  0.36344256    -0.12700
C1408       C  0.99229747  0.86415293  0.35528842     0.18200
C1409       C  0.97841536  0.88391618  0.34679762    -0.09700
C1410       C  0.95301320  0.88209643  0.34559177    -0.02700
H1411       H  0.99092316  0.82790161  0.36988070     0.04700
C1412       C  0.01919716  0.86380209  0.35345184     0.20200
H1413       H  0.94279453  0.89738236  0.33851480     0.09900
C1414       C  0.02979226  0.86409311  0.33029596    -0.16000
C1415       C  0.05488932  0.86126053  0.32725301     0.02900
C1416       C  0.07009057  0.85831975  0.34782787    -0.11400
C1417       C  0.05940038  0.85825771  0.37106099    -0.01400
C1418       C  0.03421765  0.86079328  0.37398042    -0.06600
H1419       H  0.01828601  0.86563553  0.31436368     0.05900
H1420       H  0.07065212  0.85598281  0.38708292     0.09300
Br1421     Br  0.99340692  0.91378057  0.33676803    -0.06300
Br1422     Br  0.94180238  0.81129043  0.37467170    -0.03200
Br1423     Br  0.06644517  0.85930889  0.29433688    -0.00400
Br1424     Br  0.02123397  0.85992293  0.40633692    -0.04700
C1425       C  0.86037333  0.94277568  0.35003931    -0.12100
C1426       C  0.86177863  0.95539262  0.37241251     0.03300
C1427       C  0.86282952  0.98090895  0.37262020    -0.12700
C1428       C  0.86247256  0.99420211  0.35087064     0.18200
C1429       C  0.86154097  0.98169270  0.32861294    -0.09700
C1430       C  0.86062813  0.95628524  0.32832269    -0.02700
H1431       H  0.86363794  0.99045176  0.38982676     0.04700
C1432       C  0.86171905  0.02111037  0.35159558     0.20200
H1433       H  0.85944762  0.94708556  0.31094861     0.09900
C1434       C  0.88344368  0.03450654  0.35167564    -0.16000
C1435       C  0.88309430  0.06004904  0.35110961     0.02900
C1436       C  0.86058687  0.07258558  0.35038564    -0.11400
C1437       C  0.83891957  0.05892613  0.35084442    -0.01400
C1438       C  0.83935972  0.03351429  0.35136800    -0.06600
H1439       H  0.90073113  0.02503463  0.35202722     0.05900
H1440       H  0.82143399  0.06801570  0.35026510     0.09300
Br1441     Br  0.86070740  0.99866766  0.29816613    -0.06300
Br1442     Br  0.86326106  0.93899311  0.40317302    -0.03200
Br1443     Br  0.91388657  0.07653110  0.35240890    -0.00400
Br1444     Br  0.80893960  0.01637141  0.35121820    -0.04700
C1445       C  0.79808834  0.80558989  0.36807429    -0.12100
C1446       C  0.77811790  0.80384126  0.35201294     0.03300
C1447       C  0.76159045  0.78469817  0.35450159    -0.12700
C1448       C  0.76393788  0.76762952  0.37331483     0.18200
C1449       C  0.78328494  0.76990964  0.38993225    -0.09700
C1450       C  0.80032671  0.78855007  0.38699938    -0.02700
H1451       H  0.74685479  0.78299006  0.34152210     0.04700
C1452       C  0.74640742  0.74724316  0.37458415     0.20200
H1453       H  0.81528133  0.78990043  0.39977756     0.09900
C1454       C  0.75475023  0.72328957  0.37165145    -0.16000
C1455       C  0.73843904  0.70375492  0.37039073     0.02900
C1456       C  0.71306014  0.70818222  0.37158889    -0.11400
C1457       C  0.70496664  0.73219110  0.37539066    -0.01400
C1458       C  0.72129559  0.75152849  0.37695914    -0.06600
H1459       H  0.77407657  0.71982253  0.36987910     0.05900
H1460       H  0.68571050  0.73618424  0.37666710     0.09300
Br1461     Br  0.78663012  0.74873691  0.41746172    -0.06300
Br1462     Br  0.77285559  0.82608508  0.32559754    -0.03200
Br1463     Br  0.75241309  0.67183060  0.36742094    -0.00400
Br1464     Br  0.70827712  0.78346011  0.38256831    -0.04700
C1465       C  0.70838373  0.88389893  0.20084902    -0.12100
C1466       C  0.72608190  0.90250175  0.20167118     0.03300
C1467       C  0.74493387  0.90135555  0.21884212    -0.12700
C1468       C  0.74649528  0.88189272  0.23527331     0.18200
C1469       C  0.72841722  0.86378935  0.23495768    -0.09700
C1470       C  0.70963453  0.86488750  0.21786344    -0.02700
H1471       H  0.75843448  0.91571054  0.21941033     0.04700
C1472       C  0.76653532  0.88119938  0.25324915     0.20200
H1473       H  0.69617659  0.85047933  0.21757192     0.09900
C1474       C  0.76538162  0.89645277  0.27358116    -0.16000
C1475       C  0.78345396  0.89579369  0.29150945     0.02900
C1476       C  0.80348364  0.87968378  0.28910636    -0.11400
C1477       C  0.80474033  0.86473777  0.26836431    -0.01400
C1478       C  0.78645144  0.86530099  0.25062102    -0.06600
H1479       H  0.75012461  0.90879278  0.27563876     0.05900
H1480       H  0.81975242  0.85213378  0.26614990     0.09300
Br1481     Br  0.72842166  0.83740331  0.25776752    -0.06300
Br1482     Br  0.72458963  0.93052078  0.18090759    -0.03200
Br1483     Br  0.77961614  0.91797360  0.31825748    -0.00400
Br1484     Br  0.78930581  0.84396297  0.22315547    -0.04700
C1485       C  0.87911963  0.80103322  0.29303266    -0.12100
C1486       C  0.89879403  0.80157781  0.27642663     0.03300
C1487       C  0.90011366  0.78438301  0.25763876    -0.12700
C1488       C  0.88201581  0.76665393  0.25484409     0.18200
C1489       C  0.86262169  0.76583757  0.27153863    -0.09700
C1490       C  0.86139030  0.78279645  0.29050851    -0.02700
H1491       H  0.91522362  0.78498968  0.24496833     0.04700
C1492       C  0.88331473  0.74938311  0.23420112     0.20200
H1493       H  0.84610742  0.78212728  0.30295912     0.09900
C1494       C  0.89803352  0.72862960  0.23595732    -0.16000
C1495       C  0.89846640  0.71119713  0.21731995     0.02900
C1496       C  0.88368585  0.71433578  0.19641723    -0.11400
C1497       C  0.86974189  0.73575435  0.19445133    -0.01400
C1498       C  0.86954753  0.75315803  0.21300420    -0.06600
H1499       H  0.90905031  0.72585652  0.25206346     0.05900
H1500       H  0.85839582  0.73880744  0.17863290     0.09300
Br1501     Br  0.83722067  0.74206029  0.26880840    -0.06300
Br1502     Br  0.92492951  0.82465578  0.27893250    -0.03200
Br1503     Br  0.92020298  0.68413014  0.22153617    -0.00400
Br1504     Br  0.85002313  0.78179049  0.20875675    -0.04700
C1505       C  0.15176694  0.36065106  0.93113021    -0.12100
C1506       C  0.15122994  0.38301079  0.94386839     0.03300
C1507       C  0.15052869  0.38304960  0.96935429    -0.12700
C1508       C  0.15045552  0.36115475  0.98240574     0.18200
C1509       C  0.15074602  0.33895183  0.96978092    -0.09700
C1510       C  0.15129592  0.33882968  0.94443867    -0.02700
H1511       H  0.15015254  0.40020666  0.97904795     0.04700
C1512       C  0.15045642  0.36152738  0.00921298     0.20200
H1513       H  0.15190876  0.32147743  0.93511628     0.09900
C1514       C  0.12830410  0.36302824  0.02177360    -0.16000
C1515       C  0.12758227  0.36123644  0.04718001     0.02900
C1516       C  0.14942914  0.35797169  0.06036205    -0.11400
C1517       C  0.17161308  0.35722623  0.04760642    -0.01400
C1518       C  0.17224083  0.35884365  0.02230780    -0.06600
H1519       H  0.11148153  0.36518041  0.01172132     0.05900
H1520       H  0.18859629  0.35464356  0.05728942     0.09300
Br1521     Br  0.15076109  0.30831229  0.98647703    -0.06300
Br1522     Br  0.15036532  0.41396365  0.92771834    -0.03200
Br1523     Br  0.09639643  0.36413709  0.06266126    -0.00400
Br1524     Br  0.20319691  0.35649981  0.00631699    -0.04700
C1525       C  0.35641909  0.15139997  0.92905575    -0.12100
C1526       C  0.35373650  0.17208797  0.94404136     0.03300
C1527       C  0.35602957  0.16979049  0.96919983    -0.12700
C1528       C  0.36186719  0.14738291  0.97992737     0.18200
C1529       C  0.36472796  0.12674333  0.96493567    -0.09700
C1530       C  0.36168768  0.12884698  0.93978410    -0.02700
H1531       H  0.35309317  0.18563240  0.98052517     0.04700
C1532       C  0.36352721  0.14596360  0.00680366     0.20200
H1533       H  0.36401786  0.11287509  0.92849686     0.09900
C1534       C  0.34818920  0.12994911  0.01937117    -0.16000
C1535       C  0.34757182  0.12957046  0.04475776     0.02900
C1536       C  0.36157035  0.14650317  0.05819542    -0.11400
C1537       C  0.37764324  0.16187570  0.04555964    -0.01400
C1538       C  0.37891642  0.16152836  0.02018065    -0.06600
H1539       H  0.33633769  0.11780687  0.00935346     0.05900
H1540       H  0.38895924  0.17466877  0.05538623     0.09300
Br1541     Br  0.37386919  0.09550858  0.97757035    -0.06300
Br1542     Br  0.34584802  0.20382056  0.93166381    -0.03200
Br1543     Br  0.32794355  0.10469776  0.05950082    -0.00400
Br1544     Br  0.40223934  0.18247468  0.00476363    -0.04700
C1545       C  0.30035710  0.20920035  0.86234615    -0.12100
C1546       C  0.28259525  0.20909207  0.88095317     0.03300
C1547       C  0.26413317  0.22657723  0.88098713    -0.12700
C1548       C  0.26284413  0.24421249  0.86271815     0.18200
C1549       C  0.28056392  0.24458730  0.84427842    -0.09700
C1550       C  0.29919610  0.22720826  0.84424398    -0.02700
H1551       H  0.25071546  0.22649166  0.89540930     0.04700
C1552       C  0.24330360  0.26255671  0.86381365     0.20200
H1553       H  0.31259080  0.22754400  0.82980470     0.09900
C1554       C  0.24568859  0.28214079  0.87989777    -0.16000
C1555       C  0.22760066  0.29996871  0.88155433     0.02900
C1556       C  0.20651481  0.29825485  0.86683301    -0.11400
C1557       C  0.20394898  0.27807505  0.85128436    -0.01400
C1558       C  0.22213675  0.26037806  0.84965092    -0.06600
H1559       H  0.26178315  0.28357603  0.89117820     0.05900
H1560       H  0.18804830  0.27635684  0.83977723     0.09300
Br1561     Br  0.28004648  0.26862423  0.81900468    -0.06300
Br1562     Br  0.28304215  0.18650433  0.90758428    -0.03200
Br1563     Br  0.23277968  0.32545093  0.90492263    -0.00400
Br1564     Br  0.21737042  0.23361269  0.82778455    -0.04700
C1565       C  0.36052790  0.36104273  0.55947669    -0.12100
C1566       C  0.35134652  0.38192853  0.54733452     0.03300
C1567       C  0.35218624  0.38318335  0.52191292    -0.12700
C1568       C  0.36191794  0.36408511  0.50812194     0.18200
C1569       C  0.37182095  0.34378601  0.52009476    -0.09700
C1570       C  0.37117494  0.34246013  0.54542047    -0.02700
H1571       H  0.34471199  0.39898914  0.51274982     0.04700
C1572       C  0.36053697  0.36487283  0.48127550     0.20200
H1573       H  0.37842943  0.32628872  0.55405912     0.09900
C1574       C  0.38203614  0.36616569  0.46756975    -0.16000
C1575       C  0.38150213  0.36419123  0.44218663     0.02900
C1576       C  0.35902636  0.36109019  0.43009562    -0.11400
C1577       C  0.33746563  0.36099865  0.44388260    -0.01400
C1578       C  0.33806516  0.36270909  0.46919449    -0.06600
H1579       H  0.39938478  0.36815575  0.47675113     0.05900
H1580       H  0.32000126  0.35862433  0.43501157     0.09300
Br1581     Br  0.38494388  0.31655982  0.50259116    -0.06300
Br1582     Br  0.33701386  0.40938953  0.56364206    -0.03200
Br1583     Br  0.41195662  0.36643761  0.42522850    -0.00400
Br1584     Br  0.30780363  0.36022090  0.48647571    -0.04700
C1585       C  0.37884327  0.29754599  0.69886594    -0.12100
C1586       C  0.39562700  0.27809116  0.69706979     0.03300
C1587       C  0.39539750  0.25948476  0.71446068    -0.12700
C1588       C  0.37873233  0.25986352  0.73373325     0.18200
C1589       C  0.36258374  0.27957689  0.73604335    -0.09700
C1590       C  0.36270324  0.29813923  0.71870523    -0.02700
H1591       H  0.40818020  0.24461792  0.71290908     0.04700
C1592       C  0.37854500  0.23963185  0.75137463     0.20200
H1593       H  0.34981593  0.31288292  0.72056293     0.09900
C1594       C  0.39698380  0.23816285  0.76890064    -0.16000
C1595       C  0.39677816  0.21984383  0.78652640     0.02900
C1596       C  0.37785275  0.20245988  0.78661000    -0.11400
C1597       C  0.35992778  0.20347125  0.76846723    -0.01400
C1598       C  0.36006637  0.22189879  0.75100639    -0.06600
H1599       H  0.41162873  0.25169607  0.76902920     0.05900
H1600       H  0.34511187  0.19011009  0.76829082     0.09300
Br1601     Br  0.34021190  0.28203230  0.76272998    -0.06300
Br1602     Br  0.42011199  0.27631832  0.67221959    -0.03200
Br1603     Br  0.42323979  0.21889763  0.80935518    -0.00400
Br1604     Br  0.33460568  0.22229472  0.72712378    -0.04700
C1605       C  0.30055224  0.36986488  0.69846626    -0.12100
C1606       C  0.27772730  0.35789527  0.69712803     0.03300
C1607       C  0.26135782  0.35964665  0.71649297    -0.12700
C1608       C  0.26704864  0.37318001  0.73725825     0.18200
C1609       C  0.28960887  0.38504899  0.73879154    -0.09700
C1610       C  0.30608430  0.38334856  0.71954460    -0.02700
H1611       H  0.24399957  0.35029764  0.71540187     0.04700
C1612       C  0.24934572  0.37405668  0.75733798     0.20200
H1613       H  0.32339070  0.39267897  0.72119153     0.09900
C1614       C  0.24629888  0.35339951  0.77189799    -0.16000
C1615       C  0.22884333  0.35303452  0.79033609     0.02900
C1616       C  0.21416416  0.37368804  0.79445553    -0.11400
C1617       C  0.21709846  0.39429337  0.77971154    -0.01400
C1618       C  0.23457297  0.39460542  0.76123932    -0.06600
H1619       H  0.25726001  0.33733833  0.76858145     0.05900
H1620       H  0.20569162  0.41013608  0.78251056     0.09300
Br1621     Br  0.29889933  0.40327906  0.76704895    -0.06300
Br1622     Br  0.26751213  0.33816770  0.67021101    -0.03200
Br1623     Br  0.22435897  0.32311584  0.80771807    -0.00400
Br1624     Br  0.23700207  0.42299417  0.74113414    -0.04700
C1625       C  0.14858912  0.15323252  0.55957103    -0.12100
C1626       C  0.15494496  0.13218889  0.54631860     0.03300
C1627       C  0.15457776  0.13256320  0.52087856    -0.12700
C1628       C  0.14826788  0.15372615  0.50809300     0.18200
C1629       C  0.14128537  0.17459837  0.52125924    -0.09700
C1630       C  0.14131565  0.17414994  0.54675425    -0.02700
H1631       H  0.15955466  0.11627295  0.51094701     0.04700
C1632       C  0.14957373  0.15353927  0.48110881     0.20200
H1633       H  0.13657533  0.19056212  0.55660878     0.09900
C1634       C  0.12818159  0.15548476  0.46732035    -0.16000
C1635       C  0.12878715  0.15431545  0.44184964     0.02900
C1636       C  0.15123939  0.15070854  0.42963906    -0.11400
C1637       C  0.17257822  0.14872342  0.44362334    -0.01400
C1638       C  0.17192616  0.15035243  0.46899431    -0.06600
H1639       H  0.11085072  0.15776750  0.47647272     0.05900
H1640       H  0.19007504  0.14664411  0.43475809     0.09300
Br1641     Br  0.13318290  0.20456992  0.50531664    -0.06300
Br1642     Br  0.16349239  0.10215186  0.56186355    -0.03200
Br1643     Br  0.09812041  0.15707788  0.42521293    -0.00400
Br1644     Br  0.20226999  0.14947141  0.48626437    -0.04700
C1645       C  0.13214384  0.21203868  0.69816791    -0.12100
C1646       C  0.13035810  0.23709531  0.69254134     0.03300
C1647       C  0.13003014  0.25437795  0.71124003    -0.12700
C1648       C  0.13113090  0.24729475  0.73567185     0.18200
C1649       C  0.13158321  0.22238154  0.74142967    -0.09700
C1650       C  0.13195986  0.20501496  0.72277964    -0.02700
H1651       H  0.12908491  0.27351621  0.70670697     0.04700
C1652       C  0.13259276  0.26627849  0.75472401     0.20200
H1653       H  0.13297930  0.18595529  0.72759565     0.09900
C1654       C  0.11210605  0.27158201  0.76901140    -0.16000
C1655       C  0.11291076  0.29003399  0.78659877     0.02900
C1656       C  0.13441190  0.30369119  0.78982166    -0.11400
C1657       C  0.15483446  0.29838110  0.77546181    -0.01400
C1658       C  0.15414040  0.27969028  0.75822463    -0.06600
H1659       H  0.09540549  0.26146950  0.76631441     0.05900
H1660       H  0.17157754  0.30846533  0.77804232     0.09300
Br1661     Br  0.13294730  0.21134240  0.77446635    -0.06300
Br1662     Br  0.12700476  0.24908960  0.65993720    -0.03200
Br1663     Br  0.08381480  0.29677482  0.80473282    -0.00400
Br1664     Br  0.18333275  0.27245128  0.74050173    -0.04700
C1665       C  0.20593034  0.13290594  0.70116896    -0.12100
C1666       C  0.20961731  0.15158598  0.71843761     0.03300
C1667       C  0.22828990  0.14951132  0.73555292    -0.12700
C1668       C  0.24318235  0.12885360  0.73621837     0.18200
C1669       C  0.23897856  0.10976913  0.71969956    -0.09700
C1670       C  0.22075332  0.11208339  0.70202476    -0.02700
H1671       H  0.23129935  0.16412911  0.74836234     0.04700
C1672       C  0.26264226  0.12759354  0.75470647     0.20200
H1673       H  0.21781963  0.09741168  0.68927752     0.09900
C1674       C  0.25627420  0.12349324  0.77895319    -0.16000
C1675       C  0.27379321  0.12399331  0.79735089     0.02900
C1676       C  0.29846129  0.12867790  0.79154138    -0.11400
C1677       C  0.30484507  0.13224230  0.76706824    -0.01400
C1678       C  0.28716004  0.13200243  0.74874031    -0.06600
H1679       H  0.23716494  0.12010959  0.78368764     0.05900
H1680       H  0.32377417  0.13626032  0.76220089     0.09300
Br1681     Br  0.25696829  0.07992067  0.72142003    -0.06300
Br1682     Br  0.19079435  0.18102238  0.71893468    -0.03200
Br1683     Br  0.26267287  0.11761490  0.82981800    -0.00400
Br1684     Br  0.29690526  0.13930930  0.71606817    -0.04700
C1685       C  0.21276378  0.20478461  0.62253788    -0.12100
C1686       C  0.23101951  0.20740325  0.64035871     0.03300
C1687       C  0.24859847  0.22550948  0.63789053    -0.12700
C1688       C  0.24893153  0.24072220  0.61748160     0.18200
C1689       C  0.23156820  0.23725762  0.59895151    -0.09700
C1690       C  0.21328561  0.21978171  0.60188382    -0.02700
H1691       H  0.26210500  0.22780429  0.65205491     0.04700
C1692       C  0.26795988  0.25963970  0.61609948     0.20200
H1693       H  0.19976667  0.21749724  0.58773392     0.09900
C1694       C  0.29243684  0.25245379  0.61663566    -0.16000
C1695       C  0.31114739  0.26958899  0.61830148     0.02900
C1696       C  0.30543539  0.29470340  0.61902679    -0.11400
C1697       C  0.28084970  0.30177324  0.61759993    -0.01400
C1698       C  0.26219386  0.28456550  0.61679289    -0.06600
H1699       H  0.29697532  0.23328017  0.61636254     0.05900
H1700       H  0.27593756  0.32082437  0.61824008     0.09300
Br1701     Br  0.23296927  0.25479074  0.56883085    -0.06300
Br1702     Br  0.23262669  0.18756190  0.66890746    -0.03200
Br1703     Br  0.34375797  0.25695830  0.61948280    -0.00400
Br1704     Br  0.22927755  0.29611398  0.61919690    -0.04700
C1705       C  0.35769423  0.56722434  0.64139606    -0.12100
C1706       C  0.35927044  0.55450564  0.61908723     0.03300
C1707       C  0.35894151  0.52895911  0.61887308    -0.12700
C1708       C  0.35679617  0.51571127  0.64054744     0.18200
C1709       C  0.35494800  0.52831156  0.66271216    -0.09700
C1710       C  0.35563905  0.55376343  0.66303628    -0.02700
H1711       H  0.36047127  0.51937073  0.60174068     0.04700
C1712       C  0.35704859  0.48875257  0.63996751     0.20200
H1713       H  0.35396198  0.56309142  0.68030012     0.09900
C1714       C  0.37905531  0.47636691  0.64365440    -0.16000
C1715       C  0.37985017  0.45087475  0.64472696     0.02900
C1716       C  0.35812392  0.43721265  0.64230353    -0.11400
C1717       C  0.33619251  0.44987883  0.63800061    -0.01400
C1718       C  0.33554648  0.47530184  0.63681109    -0.06600
H1719       H  0.39571692  0.48664558  0.64588541     0.05900
H1720       H  0.31924324  0.44003444  0.63596421     0.09300
Br1721     Br  0.35080607  0.51138938  0.69291649    -0.06300
Br1722     Br  0.36307907  0.57083622  0.58848409    -0.03200
Br1723     Br  0.41135433  0.43626840  0.64879858    -0.00400
Br1724     Br  0.30478448  0.49094662  0.63145616    -0.04700
C1725       C  0.36344078  0.65257603  0.43037167    -0.12100
C1726       C  0.37388832  0.67159939  0.44443766     0.03300
C1727       C  0.37393436  0.67003685  0.46982421    -0.12700
C1728       C  0.36366260  0.65005069  0.48172274     0.18200
C1729       C  0.35342444  0.63112538  0.46798624    -0.09700
C1730       C  0.35352991  0.63238597  0.44263202    -0.02700
H1731       H  0.38163130  0.68476980  0.48043604     0.04700
C1732       C  0.36256124  0.64989549  0.50850855     0.20200
H1733       H  0.34534544  0.61758513  0.43252720     0.09900
C1734       C  0.34036071  0.65508090  0.51987060    -0.16000
C1735       C  0.33851761  0.65552261  0.54517452     0.02900
C1736       C  0.35918670  0.65043832  0.55959248    -0.11400
C1737       C  0.38152912  0.64558486  0.54814962    -0.01400
C1738       C  0.38330978  0.64525496  0.52276646    -0.06600
H1739       H  0.32447015  0.65919885  0.50894514     0.05900
H1740       H  0.39760283  0.64195602  0.55897596     0.09300
Br1741     Br  0.33891463  0.60327884  0.48316908    -0.06300
Br1742     Br  0.38790945  0.70068675  0.43100645    -0.03200
Br1743     Br  0.30781315  0.66533013  0.55877693    -0.00400
Br1744     Br  0.41423341  0.63810235  0.50825084    -0.04700
C1745       C  0.14898978  0.56977461  0.84791722    -0.12100
C1746       C  0.15208602  0.55482581  0.82727631     0.03300
C1747       C  0.15046042  0.52962936  0.82960513    -0.12700
C1748       C  0.14598038  0.51885245  0.85221296     0.18200
C1749       C  0.14291366  0.53364410  0.87285990    -0.09700
C1750       C  0.14440282  0.55894311  0.87058897    -0.02700
H1751       H  0.15346862  0.51827331  0.81378623     0.04700
C1752       C  0.14654013  0.49209919  0.85380104     0.20200
H1753       H  0.14211067  0.57018747  0.88660651     0.09900
C1754       C  0.16656102  0.48084938  0.86480201    -0.16000
C1755       C  0.16974470  0.45564158  0.86358943     0.02900
C1756       C  0.15237611  0.44109565  0.85116654    -0.11400
C1757       C  0.13184763  0.45259390  0.84095545    -0.01400
C1758       C  0.12896220  0.47779353  0.84202494    -0.06600
H1759       H  0.18029410  0.49189289  0.87361846     0.05900
H1760       H  0.11815312  0.44207348  0.83149349     0.09300
Br1761     Br  0.13664528  0.52009877  0.90436235    -0.06300
Br1762     Br  0.16103407  0.56728807  0.79589945    -0.03200
Br1763     Br  0.19878436  0.44320439  0.87864747    -0.00400
Br1764     Br  0.10095802  0.49195927  0.82668773    -0.04700
C1765       C  0.15023198  0.64595885  0.93042587    -0.12100
C1766       C  0.12884197  0.65187807  0.94361483     0.03300
C1767       C  0.12833690  0.64882691  0.96887526    -0.12700
C1768       C  0.14859263  0.63974809  0.98140537     0.18200
C1769       C  0.16927718  0.63249925  0.96830556    -0.09700
C1770       C  0.16996650  0.63559530  0.94312806    -0.02700
H1771       H  0.11227439  0.65429210  0.97896350     0.04700
C1772       C  0.14898950  0.64075456  0.00820238     0.20200
H1773       H  0.18648930  0.63053859  0.93359642     0.09900
C1774       C  0.14668200  0.61941009  0.02200259    -0.16000
C1775       C  0.14820502  0.62016860  0.04745660     0.02900
C1776       C  0.15203504  0.64265215  0.05931080    -0.11400
C1777       C  0.15386518  0.66392398  0.04532295    -0.01400
C1778       C  0.15253287  0.66310900  0.02006792    -0.06600
H1779       H  0.14383023  0.60215158  0.01292937     0.05900
H1780       H  0.15706223  0.68130918  0.05403998     0.09300
Br1781     Br  0.19765066  0.61983050  0.98425491    -0.06300
Br1782     Br  0.09961778  0.66428653  0.92889904    -0.03200
Br1783     Br  0.14388160  0.59026935  0.06495466    -0.00400
Br1784     Br  0.15690375  0.69293930  0.00248648    -0.04700
C1785       C  0.20814825  0.63556654  0.78954686    -0.12100
C1786       C  0.21098381  0.65420926  0.77209980     0.03300
C1787       C  0.23028853  0.65325694  0.75554799    -0.12700
C1788       C  0.24708570  0.63403522  0.75591305     0.18200
C1789       C  0.24476179  0.61583282  0.77378188    -0.09700
C1790       C  0.22544495  0.61672395  0.79035418    -0.02700
H1791       H  0.23231090  0.66772128  0.74231734     0.04700
C1792       C  0.26676059  0.63339677  0.73744089     0.20200
H1793       H  0.22380865  0.60243334  0.80381995     0.09900
C1794       C  0.29114103  0.63539733  0.74473846    -0.16000
C1795       C  0.31009836  0.63529822  0.72768734     0.02900
C1796       C  0.30472837  0.63355072  0.70252261    -0.11400
C1797       C  0.28019934  0.63144963  0.69541949    -0.01400
C1798       C  0.26139489  0.63133852  0.71251229    -0.06600
H1799       H  0.29545172  0.63706671  0.76390427     0.05900
H1800       H  0.27545255  0.63009904  0.67634003     0.09300
Br1801     Br  0.26700202  0.58898744  0.77589089    -0.06300
Br1802     Br  0.19039875  0.68240569  0.77090765    -0.03200
Br1803     Br  0.34261730  0.63686139  0.74050165    -0.00400
Br1804     Br  0.22866439  0.62772411  0.70081974    -0.04700
C1805       C  0.36158685  0.93927737  0.84992916    -0.12100
C1806       C  0.37339328  0.95429729  0.83273981     0.03300
C1807       C  0.37480424  0.97933335  0.83669462    -0.12700
C1808       C  0.36446166  0.98993050  0.85739282     0.18200
C1809       C  0.35318996  0.97501161  0.87484489    -0.09700
C1810       C  0.35183944  0.94987548  0.87103932    -0.02700
H1811       H  0.38292820  0.99080294  0.82289943     0.04700
C1812       C  0.36242953  0.01668142  0.85825077     0.20200
H1813       H  0.34291547  0.93860574  0.88449521     0.09900
C1814       C  0.33967099  0.02709364  0.85352322    -0.16000
C1815       C  0.33717497  0.05214219  0.85035526     0.02900
C1816       C  0.35779196  0.06741611  0.85224912    -0.11400
C1817       C  0.38056854  0.05696846  0.85740609    -0.01400
C1818       C  0.38300371  0.03177909  0.86034842    -0.06600
H1819       H  0.32389059  0.01547646  0.85114806     0.05900
H1820       H  0.39655682  0.06841478  0.85899195     0.09300
Br1821     Br  0.33922117  0.98827047  0.90391535    -0.06300
Br1822     Br  0.38549304  0.94252923  0.80216420    -0.03200
Br1823     Br  0.30557009  0.06368825  0.84083618    -0.00400
Br1824     Br  0.41466973  0.01870101  0.86703366    -0.04700
C1825       C  0.35827818  0.85867491  0.05670305    -0.12100
C1826       C  0.33958538  0.86983544  0.04289040     0.03300
C1827       C  0.34095585  0.87009014  0.01745200    -0.12700
C1828       C  0.36073955  0.85962612  0.00525910     0.18200
C1829       C  0.37981559  0.84936428  0.01888381    -0.09700
C1830       C  0.37837935  0.84872991  0.04432083    -0.02700
H1831       H  0.32614462  0.87790201  0.00705938     0.04700
C1832       C  0.36019012  0.85800816  0.97836778     0.20200
H1833       H  0.39293961  0.84017573  0.05444726     0.09900
C1834       C  0.37022842  0.87673197  0.96422518    -0.16000
C1835       C  0.36906920  0.87584543  0.93874423     0.02900
C1836       C  0.35774889  0.85597615  0.92712378    -0.11400
C1837       C  0.34818050  0.83706238  0.94130570    -0.01400
C1838       C  0.34914242  0.83805578  0.96670507    -0.06600
H1839       H  0.37894136  0.89203599  0.97302523     0.05900
H1840       H  0.33944435  0.82170459  0.93259363     0.09300
Br1841     Br  0.40785268  0.83554386  0.00337493    -0.06300
Br1842     Br  0.31067431  0.88332834  0.05715999    -0.03200
Br1843     Br  0.38429610  0.90142084  0.92053174    -0.00400
Br1844     Br  0.33475847  0.81195747  0.98482138    -0.04700
C1845       C  0.37694325  0.70946162  0.69614222    -0.12100
C1846       C  0.39697955  0.71265217  0.71179197     0.03300
C1847       C  0.39654457  0.73128005  0.72910614    -0.12700
C1848       C  0.37626130  0.74666505  0.73128698     0.18200
C1849       C  0.35622487  0.74342893  0.71568474    -0.09700
C1850       C  0.35675811  0.72500345  0.69823865    -0.02700
H1851       H  0.41213180  0.73385986  0.74089687     0.04700
C1852       C  0.37644928  0.76600561  0.74989210     0.20200
H1853       H  0.34109320  0.72249664  0.68652447     0.09900
C1854       C  0.37714254  0.79040979  0.74261329    -0.16000
C1855       C  0.37755502  0.80919364  0.75976977     0.02900
C1856       C  0.37765637  0.80355005  0.78490144    -0.11400
C1857       C  0.37720949  0.77897377  0.79198919    -0.01400
C1858       C  0.37638200  0.76033408  0.77478420    -0.06600
H1859       H  0.37735779  0.79484407  0.72342483     0.05900
H1860       H  0.37670939  0.77415361  0.81106782     0.09300
Br1861     Br  0.32736212  0.76298627  0.71812850    -0.06300
Br1862     Br  0.42583024  0.69309739  0.70944280    -0.03200
Br1863     Br  0.37852869  0.84182172  0.74725209    -0.00400
Br1864     Br  0.37381067  0.72744487  0.78616265    -0.04700
C1865       C  0.30264087  0.79792138  0.85809906    -0.12100
C1866       C  0.29733231  0.78395520  0.83726126     0.03300
C1867       C  0.27981646  0.76557186  0.83853767    -0.12700
C1868       C  0.26754669  0.76093737  0.86036676     0.18200
C1869       C  0.27297088  0.77477667  0.88117767    -0.09700
C1870       C  0.29025212  0.79332485  0.87985964    -0.02700
H1871       H  0.27555744  0.75503820  0.82244327     0.04700
C1872       C  0.24892985  0.74176146  0.86116638     0.20200
H1873       H  0.29444342  0.80381707  0.89599392     0.09900
C1874       C  0.25620788  0.71739767  0.86250296    -0.16000
C1875       C  0.23896796  0.69878027  0.86426559     0.02900
C1876       C  0.21385511  0.70460716  0.86453777    -0.11400
C1877       C  0.20678313  0.72915111  0.86312104    -0.01400
C1878       C  0.22405297  0.74762226  0.86134814    -0.06600
H1879       H  0.27540690  0.71290567  0.86254183     0.05900
H1880       H  0.18768925  0.73404985  0.86284287     0.09300
Br1881     Br  0.25771389  0.76841103  0.91187941    -0.06300
Br1882     Br  0.31242311  0.79021752  0.80640643    -0.03200
Br1883     Br  0.25124392  0.66617759  0.86733313    -0.00400
Br1884     Br  0.21283596  0.78057592  0.85867698    -0.04700
C1885       C  0.14706336  0.85470092  0.42863151    -0.12100
C1886       C  0.13369323  0.87418482  0.43857808     0.03300
C1887       C  0.13091381  0.87604056  0.46389080    -0.12700
C1888       C  0.14151658  0.85871465  0.47938484     0.18200
C1889       C  0.15448841  0.83906542  0.46928966    -0.09700
C1890       C  0.15696172  0.83706726  0.44411556    -0.02700
H1891       H  0.12091016  0.89121472  0.47150739     0.04700
C1892       C  0.14087804  0.86204206  0.50605645     0.20200
H1893       H  0.16721547  0.82199593  0.43660077     0.09900
C1894       C  0.12196486  0.85183032  0.51980250    -0.16000
C1895       C  0.12333134  0.85110906  0.54528535     0.02900
C1896       C  0.14421030  0.86021876  0.55727354    -0.11400
C1897       C  0.16221395  0.87193138  0.54340279    -0.01400
C1898       C  0.16062083  0.87295426  0.51808052    -0.06600
H1899       H  0.10643910  0.84383713  0.51066413     0.05900
H1900       H  0.17817870  0.87944063  0.55217371     0.09300
Br1901     Br  0.16997311  0.81502962  0.48931277    -0.06300
Br1902     Br  0.11841686  0.89804703  0.41819525    -0.03200
Br1903     Br  0.09583443  0.83843076  0.56266772    -0.00400
Br1904     Br  0.18649179  0.88830406  0.50040813    -0.04700
C1905       C  0.15168901  0.93888220  0.63781861    -0.12100
C1906       C  0.12994418  0.95144304  0.63238094     0.03300
C1907       C  0.12966764  0.97698369  0.63223679    -0.12700
C1908       C  0.15077466  0.99040959  0.63750908     0.18200
C1909       C  0.17242266  0.97783085  0.64314194    -0.09700
C1910       C  0.17279673  0.95237401  0.64291882    -0.02700
H1911       H  0.11291068  0.98644005  0.62791811     0.04700
C1912       C  0.14967085  0.01743788  0.63779889     0.20200
H1913       H  0.18954118  0.94304315  0.64758325     0.09900
C1914       C  0.13599071  0.02921058  0.65580795    -0.16000
C1915       C  0.13519494  0.05468011  0.65733182     0.02900
C1916       C  0.14860765  0.06906400  0.64062667    -0.11400
C1917       C  0.16150859  0.05703747  0.62201267    -0.01400
C1918       C  0.16196747  0.03160690  0.62040483    -0.06600
H1919       H  0.12600987  0.01846060  0.66894912     0.05900
H1920       H  0.17169701  0.06740229  0.60874611     0.09300
Br1921     Br  0.20158536  0.99449436  0.65274465    -0.06300
Br1922     Br  0.10048727  0.93471038  0.62389773    -0.03200
Br1923     Br  0.11488012  0.06809088  0.68241189    -0.00400
Br1924     Br  0.17922344  0.01705824  0.59377865    -0.04700
C1925       C  0.20570079  0.79581689  0.61783035    -0.12100
C1926       C  0.22404455  0.79555312  0.59980153     0.03300
C1927       C  0.24180685  0.77715652  0.59990106    -0.12700
C1928       C  0.24185992  0.75895489  0.61781281     0.18200
C1929       C  0.22379219  0.75944304  0.63596468    -0.09700
C1930       C  0.20577447  0.77742171  0.63558332    -0.02700
H1931       H  0.25575642  0.77710379  0.58597547     0.04700
C1932       C  0.26165948  0.74050273  0.61816974     0.20200
H1933       H  0.19227044  0.77757912  0.64994467     0.09900
C1934       C  0.28553265  0.74800084  0.62318466    -0.16000
C1935       C  0.30455338  0.73110617  0.62515441     0.02900
C1936       C  0.29982047  0.70597760  0.62215636    -0.11400
C1937       C  0.27595119  0.69860002  0.61661544    -0.01400
C1938       C  0.25705545  0.71557444  0.61431656    -0.06600
H1939       H  0.28929004  0.76713144  0.62615637     0.05900
H1940       H  0.27198544  0.67948921  0.61379432     0.09300
Br1941     Br  0.22398738  0.73716861  0.66282603    -0.06300
Br1942     Br  0.22545170  0.81918640  0.57416230    -0.03200
Br1943     Br  0.33604968  0.74365066  0.63357854    -0.00400
Br1944     Br  0.22544001  0.70387987  0.60520072    -0.04700
C1945       C  0.13803735  0.80274816  0.70044629    -0.12100
C1946       C  0.11595146  0.79481256  0.71060060     0.03300
C1947       C  0.11614954  0.77795487  0.72966416    -0.12700
C1948       C  0.13818707  0.76871768  0.73874156     0.18200
C1949       C  0.16029825  0.77640368  0.72824976    -0.09700
C1950       C  0.16008867  0.79357871  0.70945820    -0.02700
H1951       H  0.09904820  0.77196298  0.73741653     0.04700
C1952       C  0.13753551  0.74999830  0.75809100     0.20200
H1953       H  0.17716193  0.79946907  0.70153000     0.09900
C1954       C  0.12897172  0.72675991  0.75230306    -0.16000
C1955       C  0.12808648  0.70828430  0.76975168     0.02900
C1956       C  0.13597720  0.71293170  0.79392223    -0.11400
C1957       C  0.14415438  0.73655763  0.79966628    -0.01400
C1958       C  0.14486567  0.75497801  0.78208346    -0.06600
H1959       H  0.12311440  0.72289769  0.73387647     0.05900
H1960       H  0.15017817  0.74081403  0.81794064     0.09300
Br1961     Br  0.19103424  0.76302127  0.73807835    -0.06300
Br1962     Br  0.08523955  0.80709292  0.69938698    -0.03200
Br1963     Br  0.11626422  0.67738200  0.75839625    -0.00400
Br1964     Br  0.15541846  0.78680190  0.79178406    -0.04700
C1965       C  0.21332968  0.87313285  0.69182748    -0.12100
C1966       C  0.23073438  0.85436132  0.69448677     0.03300
C1967       C  0.24772834  0.85534658  0.71345405    -0.12700
C1968       C  0.24779536  0.87475572  0.72999527     0.18200
C1969       C  0.23063916  0.89357987  0.72726024    -0.09700
C1970       C  0.21353331  0.89258780  0.70841639    -0.02700
H1971       H  0.26079091  0.84073950  0.71551602     0.04700
C1972       C  0.26582168  0.87495812  0.75004315     0.20200
H1973       H  0.20028142  0.90708236  0.70676288     0.09900
C1974       C  0.28588291  0.89062389  0.74872598    -0.16000
C1975       C  0.30350986  0.89108192  0.76715516     0.02900
C1976       C  0.30106700  0.87573237  0.78769671    -0.11400
C1977       C  0.28077573  0.86011649  0.78888135    -0.01400
C1978       C  0.26339854  0.85951003  0.77026573    -0.06600
H1979       H  0.28787983  0.90253503  0.73314474     0.05900
H1980       H  0.27857560  0.84791963  0.80420922     0.09300
Br1981     Br  0.22941131  0.92059472  0.74929349    -0.06300
Br1982     Br  0.23122251  0.82600669  0.67409533    -0.03200
Br1983     Br  0.32986560  0.91364254  0.76312210    -0.00400
Br1984     Br  0.23654717  0.83738974  0.77328295    -0.04700
C1985       C  0.57207991  0.35445294  0.64321298    -0.12100
C1986       C  0.55823784  0.37618820  0.64439620     0.03300
C1987       C  0.53283316  0.37519185  0.64310114    -0.12700
C1988       C  0.52070083  0.35295926  0.64070667     0.18200
C1989       C  0.53426525  0.33134732  0.63906369    -0.09700
C1990       C  0.55971683  0.33221570  0.64014523    -0.02700
H1991       H  0.52240343  0.39187898  0.64427407     0.04700
C1992       C  0.49383186  0.35279449  0.64089444     0.20200
H1993       H  0.56980244  0.31530172  0.63937089     0.09900
C1994       C  0.48101224  0.35385271  0.61889965    -0.16000
C1995       C  0.45550711  0.35464148  0.61862327     0.02900
C1996       C  0.44244554  0.35454174  0.64079261    -0.11400
C1997       C  0.45553169  0.35368566  0.66275835    -0.01400
C1998       C  0.48093324  0.35269951  0.66292812    -0.06600
H1999       H  0.49093243  0.35422635  0.60187148     0.05900
H2000       H  0.44595370  0.35318214  0.67997748     0.09300
Br2001     Br  0.51867183  0.30024805  0.63641928    -0.06300
Br2002     Br  0.57241149  0.40800201  0.64730207    -0.03200
Br2003     Br  0.43988568  0.35687573  0.58745907    -0.00400
Br2004     Br  0.49732296  0.35076192  0.69366652    -0.04700
C2005       C  0.65654734  0.36048347  0.56538661    -0.12100
C2006       C  0.63429522  0.36082241  0.55249436     0.03300
C2007       C  0.63439088  0.36212458  0.52707630    -0.12700
C2008       C  0.65630502  0.36313147  0.51402856     0.18200
C2009       C  0.67847842  0.36364968  0.52683855    -0.09700
C2010       C  0.67845153  0.36236298  0.55224154    -0.02700
H2011       H  0.61724609  0.36214126  0.51736991     0.04700
C2012       C  0.65556493  0.36270713  0.48709819     0.20200
H2013       H  0.69573746  0.36217509  0.56170663     0.09900
C2014       C  0.66275453  0.38328322  0.47380584    -0.16000
C2015       C  0.66227347  0.38317235  0.44831503     0.02900
C2016       C  0.65413323  0.36230128  0.43576215    -0.11400
C2017       C  0.64650879  0.34196043  0.44914592    -0.01400
C2018       C  0.64742856  0.34192476  0.47453070    -0.06600
H2019       H  0.66877728  0.39944674  0.48330575     0.05900
H2020       H  0.64064303  0.32565226  0.43978528     0.09300
Br2021     Br  0.70929402  0.36482599  0.51045109    -0.06300
Br2022     Br  0.60314630  0.36060449  0.56833888    -0.03200
Br2023     Br  0.67189270  0.41229271  0.43166465    -0.00400
Br2024     Br  0.63879846  0.31250112  0.49118225    -0.04700
C2025       C  0.56878768  0.15345917  0.85850201    -0.12100
C2026       C  0.55705724  0.13128935  0.86409142     0.03300
C2027       C  0.53153137  0.13026576  0.86526769    -0.12700
C2028       C  0.51738341  0.15115693  0.86131248     0.18200
C2029       C  0.52914554  0.17359119  0.85758405    -0.09700
C2030       C  0.55458606  0.17460897  0.85619574    -0.02700
H2031       H  0.52266553  0.11299548  0.86870275     0.04700
C2032       C  0.49055092  0.14904823  0.85878453     0.20200
H2033       H  0.56324869  0.19190830  0.85239417     0.09900
C2034       C  0.47549840  0.14936983  0.87937409    -0.16000
C2035       C  0.45000471  0.14912235  0.87702735     0.02900
C2036       C  0.43917882  0.14855497  0.85363713    -0.11400
C2037       C  0.45446664  0.14726969  0.83319309    -0.01400
C2038       C  0.47981940  0.14758809  0.83561152    -0.06600
H2039       H  0.48360751  0.15016744  0.89730673     0.05900
H2040       H  0.44669523  0.14681529  0.81510433     0.09300
Br2041     Br  0.51101833  0.20314264  0.85345649    -0.06300
Br2042     Br  0.57503948  0.10221340  0.87130539    -0.03200
Br2043     Br  0.43115255  0.14876110  0.90644680    -0.00400
Br2044     Br  0.49922388  0.14660483  0.80664368    -0.04700
C2045       C  0.64982142  0.14750531  0.93508247    -0.12100
C2046       C  0.66816497  0.13692700  0.94984485     0.03300
C2047       C  0.66548919  0.13669701  0.97513689    -0.12700
C2048       C  0.64469381  0.14631580  0.98634352     0.18200
C2049       C  0.62593744  0.15581132  0.97174244    -0.09700
C2050       C  0.62860916  0.15636671  0.94647903    -0.02700
H2051       H  0.68009159  0.12947516  0.98624171     0.04700
C2052       C  0.64402560  0.14815811  0.01322851     0.20200
H2053       H  0.61403931  0.16419810  0.93576456     0.09900
C2054       C  0.64334885  0.17127674  0.02394348    -0.16000
C2055       C  0.64489925  0.17419188  0.04913928     0.02900
C2056       C  0.64771865  0.15352966  0.06430230    -0.11400
C2057       C  0.64804181  0.13034478  0.05345089    -0.01400
C2058       C  0.64600338  0.12753265  0.02824997    -0.06600
H2059       H  0.64219817  0.18728417  0.01251637     0.05900
H2060       H  0.64997508  0.11423794  0.06458872     0.09300
Br2061     Br  0.59622180  0.16811166  0.98540060    -0.06300
Br2062     Br  0.69772834  0.12291103  0.93746147    -0.03200
Br2063     Br  0.64448186  0.20715273  0.06086640    -0.00400
Br2064     Br  0.64548504  0.09513409  0.01526828    -0.04700
C2065       C  0.63772148  0.21296417  0.79920280    -0.12100
C2066       C  0.65421712  0.23279886  0.80026282     0.03300
C2067       C  0.65472553  0.24983557  0.78143739    -0.12700
C2068       C  0.63930684  0.24750674  0.76137533     0.18200
C2069       C  0.62315160  0.22777764  0.76000497    -0.09700
C2070       C  0.62241497  0.21073967  0.77881701    -0.02700
H2071       H  0.66739316  0.26494878  0.78233147     0.04700
C2072       C  0.64025641  0.26589620  0.74200043     0.20200
H2073       H  0.60979926  0.19563848  0.77742701     0.09900
C2074       C  0.65589487  0.26237406  0.72225159    -0.16000
C2075       C  0.65686170  0.27927634  0.70328758     0.02900
C2076       C  0.64130119  0.29986295  0.70365941    -0.11400
C2077       C  0.62618374  0.30352685  0.72398782    -0.01400
C2078       C  0.62579116  0.28689962  0.74313971    -0.06600
H2079       H  0.66758406  0.24650309  0.72174751     0.05900
H2080       H  0.61454743  0.31939483  0.72506416     0.09300
Br2081     Br  0.60189104  0.22347226  0.73267794    -0.06300
Br2082     Br  0.67768303  0.23737448  0.82578227    -0.03200
Br2083     Br  0.68108373  0.27368729  0.67869069    -0.00400
Br2084     Br  0.60546359  0.29363775  0.77067459    -0.04700
C2085       C  0.94157888  0.35762954  0.85034602    -0.12100
C2086       C  0.95702638  0.33703606  0.84968058     0.03300
C2087       C  0.98226001  0.34005013  0.85076874    -0.12700
C2088       C  0.99268244  0.36323241  0.85261503     0.18200
C2089       C  0.97741732  0.38378752  0.85331715    -0.09700
C2090       C  0.95211447  0.38088204  0.85212496    -0.02700
H2091       H  0.99391443  0.32417972  0.84976402     0.04700
C2092       C  0.01955027  0.36531677  0.85261936     0.20200
H2093       H  0.94062354  0.39688154  0.85277908     0.09900
C2094       C  0.03128429  0.37519635  0.83230767    -0.16000
C2095       C  0.05669572  0.37477909  0.83026594     0.02900
C2096       C  0.07097553  0.36398949  0.84890696    -0.11400
C2097       C  0.05898971  0.35509247  0.86971171    -0.01400
C2098       C  0.03363004  0.35563078  0.87162596    -0.06600
H2099       H  0.02052019  0.38267725  0.81759270     0.05900
H2100       H  0.06929056  0.34705715  0.88444510     0.09300
Br2101     Br  0.99027345  0.41605896  0.85652899    -0.06300
Br2102     Br  0.94528955  0.30435706  0.84560357    -0.03200
Br2103     Br  0.06992238  0.38892515  0.80117658    -0.00400
Br2104     Br  0.01899060  0.34271780  0.90052194    -0.04700
C2105       C  0.86425958  0.35714296  0.93464794    -0.12100
C2106       C  0.88203528  0.34416954  0.94812389     0.03300
C2107       C  0.88249124  0.34607696  0.97349559    -0.12700
C2108       C  0.86534705  0.36032167  0.98585353     0.18200
C2109       C  0.84800169  0.37354644  0.97259853    -0.09700
C2110       C  0.84772332  0.37209760  0.94730600    -0.02700
H2111       H  0.89570836  0.33562832  0.98376099     0.04700
C2112       C  0.86420106  0.35944265  0.01258260     0.20200
H2113       H  0.83388508  0.38223096  0.93757815     0.09900
C2114       C  0.87136088  0.37974762  0.02630077    -0.16000
C2115       C  0.86849719  0.37994731  0.05158403     0.02900
C2116       C  0.85839057  0.35955683  0.06331590    -0.11400
C2117       C  0.85195771  0.33903127  0.04960512    -0.01400
C2118       C  0.85460866  0.33890939  0.02441181    -0.06600
H2119       H  0.87891954  0.39553536  0.01726636     0.05900
H2120       H  0.84420056  0.32324094  0.05848569     0.09300
Br2121     Br  0.82307499  0.39227067  0.98837187    -0.06300
Br2122     Br  0.90511042  0.32212668  0.93380831    -0.03200
Br2123     Br  0.87967296  0.40783574  0.06935318    -0.00400
Br2124     Br  0.84360582  0.31083463  0.00679477    -0.04700
C2125       C  0.80107797  0.37877002  0.79649886    -0.12100
C2126       C  0.78009737  0.39308001  0.80127528     0.03300
C2127       C  0.76118160  0.39399049  0.78425351    -0.12700
C2128       C  0.76274027  0.38116529  0.76235496     0.18200
C2129       C  0.78371348  0.36747789  0.75721700    -0.09700
C2130       C  0.80259681  0.36632869  0.77418870    -0.02700
H2131       H  0.74513503  0.40483140  0.78807853     0.04700
C2132       C  0.74236246  0.38223115  0.74495415     0.20200
H2133       H  0.81837962  0.35524671  0.77000948     0.09900
C2134       C  0.74345105  0.39862695  0.72552771    -0.16000
C2135       C  0.72528018  0.39893759  0.70770400     0.02900
C2136       C  0.70568173  0.38230713  0.70907341    -0.11400
C2137       C  0.70419296  0.36666286  0.72926758    -0.01400
C2138       C  0.72229865  0.36655530  0.74710943    -0.06600
H2139       H  0.75866796  0.41105456  0.72410939     0.05900
H2140       H  0.68933393  0.35382497  0.73081241     0.09300
Br2141     Br  0.78707387  0.34966171  0.72741791    -0.06300
Br2142     Br  0.77602812  0.41264443  0.82996345    -0.03200
Br2143     Br  0.72810112  0.42305892  0.68262519    -0.00400
Br2144     Br  0.71943403  0.34404370  0.77359706    -0.04700
C2145       C  0.80034284  0.30112334  0.87177963    -0.12100
C2146       C  0.80194560  0.28216530  0.88910725     0.03300
C2147       C  0.78503756  0.26309556  0.88874712    -0.12700
C2148       C  0.76640140  0.26239924  0.87137670     0.18200
C2149       C  0.76435466  0.28153637  0.85449743    -0.09700
C2150       C  0.78118994  0.30068139  0.85482626    -0.02700
H2151       H  0.78641021  0.24870083  0.90213006     0.04700
C2152       C  0.74873414  0.24203208  0.87174240     0.20200
H2153       H  0.77961572  0.31499994  0.84137509     0.09900
C2154       C  0.72985346  0.24231978  0.88882663    -0.16000
C2155       C  0.71234235  0.22381523  0.88936629     0.02900
C2156       C  0.71330830  0.20460305  0.87223170    -0.11400
C2157       C  0.73293526  0.20388951  0.85578677    -0.01400
C2158       C  0.75059984  0.22229719  0.85554570    -0.06600
H2159       H  0.72872137  0.25709247  0.90181854     0.05900
H2160       H  0.73429010  0.18924863  0.84267126     0.09300
Br2161     Br  0.73877030  0.28227987  0.83077162    -0.06300
Br2162     Br  0.82594602  0.28177955  0.91452483    -0.03200
Br2163     Br  0.68848699  0.22539598  0.91483608    -0.00400
Br2164     Br  0.77710816  0.21972288  0.83299602    -0.04700
C2165       C  0.86060429  0.14661186  0.56382521    -0.12100
C2166       C  0.88337745  0.14436107  0.55198759     0.03300
C2167       C  0.88438782  0.14288867  0.52654002    -0.12700
C2168       C  0.86303678  0.14311872  0.51254619     0.18200
C2169       C  0.84035521  0.14374643  0.52436699    -0.09700
C2170       C  0.83928380  0.14553728  0.54969016    -0.02700
H2171       H  0.90191452  0.14188510  0.51758444     0.04700
C2172       C  0.86454147  0.14444724  0.48568515     0.20200
H2173       H  0.82159746  0.14690620  0.55827106     0.09900
C2174       C  0.85842633  0.12413924  0.47152642    -0.16000
C2175       C  0.85716611  0.12573006  0.44609364     0.02900
C2176       C  0.86192546  0.14820860  0.43435045    -0.11400
C2177       C  0.86909160  0.16816296  0.44875030    -0.01400
C2178       C  0.87038068  0.16643741  0.47406449    -0.06600
H2179       H  0.85414600  0.10707910  0.48037069     0.05900
H2180       H  0.87298671  0.18556260  0.44041667     0.09300
Br2181     Br  0.81030486  0.14352625  0.50657800    -0.06300
Br2182     Br  0.91362784  0.14210339  0.56934303    -0.03200
Br2183     Br  0.84907763  0.09634523  0.42896396    -0.00400
Br2184     Br  0.87877528  0.19509799  0.49214825    -0.04700
C2185       C  0.94052216  0.14864379  0.64552108    -0.12100
C2186       C  0.95486637  0.13663096  0.66319444     0.03300
C2187       C  0.98025193  0.13710056  0.66132033    -0.12700
C2188       C  0.99166714  0.14934862  0.64216722     0.18200
C2189       C  0.97752019  0.16062539  0.62416323    -0.09700
C2190       C  0.95219322  0.16030285  0.62598641    -0.02700
H2191       H  0.99120406  0.12845789  0.67526796     0.04700
C2192       C  0.01837510  0.15106225  0.64182075     0.20200
H2193       H  0.94156988  0.16957477  0.61220146     0.09900
C2194       C  0.03206123  0.13149643  0.63287930    -0.16000
C2195       C  0.05749058  0.13251490  0.63268427     0.02900
C2196       C  0.06941964  0.15337194  0.64154533    -0.11400
C2197       C  0.05565800  0.17310434  0.65008799    -0.01400
C2198       C  0.03027889  0.17200255  0.65046327    -0.06600
H2199       H  0.02292327  0.11546254  0.62600135     0.05900
H2200       H  0.06470446  0.18912831  0.65715981     0.09300
Br2201     Br  0.99212231  0.17701203  0.59706352    -0.06300
Br2202     Br  0.94140819  0.12102161  0.69136764    -0.03200
Br2203     Br  0.07508580  0.10558624  0.61909120    -0.00400
Br2204     Br  0.01261160  0.19911303  0.66363149    -0.04700
C2205       C  0.71839918  0.30818645  0.63245149    -0.12100
C2206       C  0.73798848  0.30813019  0.64917106     0.03300
C2207       C  0.75566002  0.28983592  0.64782773    -0.12700
C2208       C  0.75418032  0.27158815  0.63010891     0.18200
C2209       C  0.73479871  0.27164853  0.61347282    -0.09700
C2210       C  0.71721241  0.28987322  0.61467206    -0.02700
H2211       H  0.77036195  0.28950855  0.66099730     0.04700
C2212       C  0.77181764  0.25146277  0.63034498     0.20200
H2213       H  0.70228762  0.28948894  0.60177145     0.09900
C2214       C  0.76938381  0.23336024  0.64801772    -0.16000
C2215       C  0.78463209  0.21305043  0.64801591     0.02900
C2216       C  0.80274022  0.21063246  0.62989099    -0.11400
C2217       C  0.80548123  0.22921808  0.61256457    -0.01400
C2218       C  0.79017379  0.24951628  0.61267530    -0.06600
H2219       H  0.75537832  0.23498751  0.66180242     0.05900
H2220       H  0.81950593  0.22791433  0.59877726     0.09300
Br2221     Br  0.73089125  0.24644202  0.58964195    -0.06300
Br2222     Br  0.74077635  0.33105386  0.67541120    -0.03200
Br2223     Br  0.78039481  0.19028410  0.67414375    -0.00400
Br2224     Br  0.79501012  0.27422455  0.58855165    -0.04700
C2225       C  0.70423705  0.13320058  0.79114476    -0.12100
C2226       C  0.70431750  0.14865283  0.77052133     0.03300
C2227       C  0.72341659  0.14730320  0.75370344    -0.12700
C2228       C  0.74253704  0.13073320  0.75676661     0.18200
C2229       C  0.74220954  0.11484219  0.77675908    -0.09700
C2230       C  0.72327249  0.11621807  0.79375527    -0.02700
H2231       H  0.72362771  0.15961870  0.73834841     0.04700
C2232       C  0.76320316  0.13126983  0.73951762     0.20200
H2233       H  0.72357448  0.10404493  0.80921243     0.09900
C2234       C  0.78222267  0.14779981  0.74344362    -0.16000
C2235       C  0.80140349  0.14999009  0.72679358     0.02900
C2236       C  0.80178850  0.13525829  0.70566457    -0.11400
C2237       C  0.78268340  0.11858823  0.70198841    -0.01400
C2238       C  0.76353971  0.11655770  0.71863775    -0.06600
H2239       H  0.78184921  0.15943918  0.75931854     0.05900
H2240       H  0.78250846  0.10713018  0.68598373     0.09300
Br2241     Br  0.76751058  0.09131965  0.78173220    -0.06300
Br2242     Br  0.68011909  0.17321482  0.76472907    -0.03200
Br2243     Br  0.82517798  0.17480718  0.73327347    -0.00400
Br2244     Br  0.73791997  0.09386978  0.71188188    -0.04700
C2245       C  0.87467950  0.29870997  0.79524532    -0.12100
C2246       C  0.89178542  0.30028992  0.77613666     0.03300
C2247       C  0.89095392  0.28354129  0.75708676    -0.12700
C2248       C  0.87351586  0.26500516  0.75679869     0.18200
C2249       C  0.85695395  0.26286735  0.77615614    -0.09700
C2250       C  0.85757343  0.27972137  0.79516054    -0.02700
H2251       H  0.90419165  0.28477337  0.74252134     0.04700
C2252       C  0.87405458  0.24713859  0.73690977     0.20200
H2253       H  0.84441258  0.27815620  0.80976296     0.09900
C2254       C  0.89228637  0.22935234  0.73700384    -0.16000
C2255       C  0.89346138  0.21184672  0.71866117     0.02900
C2256       C  0.87618488  0.21216051  0.69965306    -0.11400
C2257       C  0.85833864  0.23049589  0.69926622    -0.01400
C2258       C  0.85710760  0.24786612  0.71776831    -0.06600
H2259       H  0.90560405  0.22902986  0.75154995     0.05900
H2260       H  0.84485575  0.23092728  0.68487113     0.09300
Br2261     Br  0.83368559  0.23689083  0.77763298    -0.06300
Br2262     Br  0.91774780  0.32371617  0.77570452    -0.03200
Br2263     Br  0.91964566  0.18873530  0.72022894    -0.00400
Br2264     Br  0.83202585  0.27213559  0.71622397    -0.04700
C2265       C  0.44225296  0.64780055  0.63879914    -0.12100
C2266       C  0.45629165  0.66441528  0.62486320     0.03300
C2267       C  0.48172662  0.66273230  0.62478500    -0.12700
C2268       C  0.49379212  0.64463340  0.63799973     0.18200
C2269       C  0.48002329  0.62739656  0.65089895    -0.09700
C2270       C  0.45456774  0.62905523  0.65123817    -0.02700
H2271       H  0.49224916  0.67595871  0.61466025     0.04700
C2272       C  0.52071424  0.64520638  0.63947302     0.20200
H2273       H  0.44444595  0.61587693  0.66179249     0.09900
C2274       C  0.53166675  0.65309206  0.66110973    -0.16000
C2275       C  0.55696203  0.65537661  0.66290700     0.02900
C2276       C  0.57181399  0.64950350  0.64281523    -0.11400
C2277       C  0.56084470  0.64175897  0.62110341    -0.01400
C2278       C  0.53549512  0.63956102  0.61932964    -0.06600
H2279       H  0.52040350  0.65806652  0.67649019     0.05900
H2280       H  0.57203978  0.63726952  0.60552560     0.09300
Br2281     Br  0.49532417  0.60125774  0.66822671    -0.06300
Br2282     Br  0.44258893  0.68986490  0.60519498    -0.03200
Br2283     Br  0.56999265  0.66870213  0.69246951    -0.00400
Br2284     Br  0.52186068  0.62848485  0.58922090    -0.04700
C2285       C  0.65090314  0.56835567  0.63834645    -0.12100
C2286       C  0.67120784  0.55256283  0.63760264     0.03300
C2287       C  0.66762861  0.52755308  0.63556493    -0.12700
C2288       C  0.64417163  0.51772121  0.63400447     0.18200
C2289       C  0.62389453  0.53337343  0.63426562    -0.09700
C2290       C  0.62736505  0.55849252  0.63652680    -0.02700
H2291       H  0.68328571  0.51556796  0.63595817     0.04700
C2292       C  0.64164715  0.49100613  0.63468787     0.20200
H2293       H  0.61162097  0.57035416  0.63682615     0.09900
C2294       C  0.63136546  0.48024190  0.65532278    -0.16000
C2295       C  0.63282838  0.45515420  0.65913283     0.02900
C2296       C  0.64512212  0.44028025  0.64199598    -0.11400
C2297       C  0.65400249  0.45112093  0.62056505    -0.01400
C2298       C  0.65242985  0.47617838  0.61688044    -0.06600
H2299       H  0.62314995  0.49161194  0.66916494     0.05900
H2300       H  0.66301676  0.44023461  0.60684332     0.09300
Br2301     Br  0.59128211  0.52129004  0.63122433    -0.06300
Br2302     Br  0.70428475  0.56337743  0.64131183    -0.03200
Br2303     Br  0.61853028  0.44337974  0.68876267    -0.00400
Br2304     Br  0.66591968  0.48940804  0.58754950    -0.04700
C2305       C  0.64884463  0.64819934  0.42980536    -0.12100
C2306       C  0.62704519  0.65410971  0.44234331     0.03300
C2307       C  0.62627650  0.65273140  0.46779176    -0.12700
C2308       C  0.64668451  0.64527953  0.48111942     0.18200
C2309       C  0.66781422  0.63804241  0.46873274    -0.09700
C2310       C  0.66877445  0.63950831  0.44340722    -0.02700
H2311       H  0.60984373  0.65809437  0.47730433     0.04700
C2312       C  0.64655891  0.64720814  0.50790847     0.20200
H2313       H  0.68562622  0.63456354  0.43444325     0.09900
C2314       C  0.63866577  0.62756764  0.52214449    -0.16000
C2315       C  0.64007317  0.62860743  0.54759124     0.02900
C2316       C  0.64923850  0.64968069  0.55901535    -0.11400
C2317       C  0.65645852  0.66950167  0.54469788    -0.01400
C2318       C  0.65540595  0.66831057  0.51936732    -0.06600
H2319       H  0.63175939  0.61129251  0.51342770     0.05900
H2320       H  0.66371643  0.68572253  0.55324832     0.09300
Br2321     Br  0.69620826  0.62710136  0.48586608    -0.06300
Br2322     Br  0.59757671  0.66412159  0.42634099    -0.03200
Br2323     Br  0.62851942  0.60126809  0.56594430    -0.00400
Br2324     Br  0.66711244  0.69559330  0.50105153    -0.04700
C2325       C  0.86521581  0.43853462  0.85669022    -0.12100
C2326       C  0.88226386  0.45107798  0.84196037     0.03300
C2327       C  0.88299376  0.47650803  0.84224740    -0.12700
C2328       C  0.86784453  0.48990770  0.85775697     0.18200
C2329       C  0.85262425  0.47736065  0.87412526    -0.09700
C2330       C  0.85126647  0.45196419  0.87336060    -0.02700
H2331       H  0.89503774  0.48590276  0.82979150     0.04700
C2332       C  0.86618949  0.51669524  0.85488605     0.20200
H2333       H  0.83856432  0.44279034  0.88530347     0.09900
C2334       C  0.84366793  0.52678776  0.84833932    -0.16000
C2335       C  0.84082159  0.55184195  0.84540912     0.02900
C2336       C  0.86093696  0.56745647  0.84873582    -0.11400
C2337       C  0.88373445  0.55732392  0.85438732    -0.01400
C2338       C  0.88648595  0.53217831  0.85756165    -0.06600
H2339       H  0.82812465  0.51498748  0.84534902     0.05900
H2340       H  0.89940139  0.56907359  0.85681421     0.09300
Br2341     Br  0.83316758  0.49413883  0.89776639    -0.06300
Br2342     Br  0.90559088  0.43496966  0.82145155    -0.03200
Br2343     Br  0.80932058  0.56325829  0.83534221    -0.00400
Br2344     Br  0.91805220  0.52013053  0.86642205    -0.04700
C2345       C  0.94145939  0.64656107  0.85268140    -0.12100
C2346       C  0.95613446  0.63263424  0.83665386     0.03300
C2347       C  0.98143385  0.63220999  0.83966441    -0.12700
C2348       C  0.99274306  0.64509000  0.85853165     0.18200
C2349       C  0.97817377  0.65797629  0.87519541    -0.09700
C2350       C  0.95288238  0.65858130  0.87221883    -0.02700
H2351       H  0.99247198  0.62233699  0.82667042     0.04700
C2352       C  0.01968938  0.64709598  0.85864221     0.20200
H2353       H  0.94220991  0.66911171  0.88498472     0.09900
C2354       C  0.03017013  0.67005554  0.85507152    -0.16000
C2355       C  0.05530853  0.67279078  0.85242693     0.02900
C2356       C  0.07060771  0.65209840  0.85274163    -0.11400
C2357       C  0.06014855  0.62910551  0.85670662    -0.01400
C2358       C  0.03496238  0.62651641  0.85990559    -0.06600
H2359       H  0.01859861  0.68595728  0.85364660     0.05900
H2360       H  0.07162861  0.61309091  0.85747717     0.09300
Br2361     Br  0.99193759  0.67519896  0.90226354    -0.06300
Br2362     Br  0.94349828  0.61371998  0.81010740    -0.03200
Br2363     Br  0.06705128  0.70519937  0.84665953    -0.00400
Br2364     Br  0.02235022  0.59467848  0.86660126    -0.04700
C2365       C  0.86065766  0.64610331  0.93029103    -0.12100
C2366       C  0.85334515  0.62520559  0.94350993     0.03300
C2367       C  0.85492134  0.62513756  0.96895390    -0.12700
C2368       C  0.86386334  0.64537938  0.98165628     0.18200
C2369       C  0.87262244  0.66546423  0.96852234    -0.09700
C2370       C  0.87096120  0.66569626  0.94322144    -0.02700
H2371       H  0.84863035  0.60939568  0.97896626     0.04700
C2372       C  0.86256804  0.64601456  0.00853110     0.20200
H2373       H  0.87717835  0.68177744  0.93373422     0.09900
C2374       C  0.88408115  0.64657306  0.02224695    -0.16000
C2375       C  0.88341263  0.64951460  0.04752739     0.02900
C2376       C  0.86075672  0.65179886  0.05956542    -0.11400
C2377       C  0.83925129  0.65022197  0.04579268    -0.01400
C2378       C  0.84000164  0.64750608  0.02054890    -0.06600
H2379       H  0.90151023  0.64513337  0.01314837     0.05900
H2380       H  0.82168929  0.65191216  0.05458591     0.09300
Br2381     Br  0.88561357  0.69380051  0.98428291    -0.06300
Br2382     Br  0.84103768  0.59610278  0.92854831    -0.03200
Br2383     Br  0.91408997  0.64953692  0.06433635    -0.00400
Br2384     Br  0.80969348  0.64751114  0.00315901    -0.04700
C2385       C  0.80142828  0.63200057  0.79068963    -0.12100
C2386       C  0.78336699  0.64999435  0.78731642     0.03300
C2387       C  0.76704404  0.64807618  0.76789415    -0.12700
C2388       C  0.76837041  0.62853112  0.75160300     0.18200
C2389       C  0.78636679  0.61063792  0.75481330    -0.09700
C2390       C  0.80275616  0.61249420  0.77420430    -0.02700
H2391       H  0.75338705  0.66205976  0.76529334     0.04700
C2392       C  0.75093492  0.62751378  0.73121036     0.20200
H2393       H  0.81655407  0.59859654  0.77644965     0.09900
C2394       C  0.75615824  0.64013612  0.70975724    -0.16000
C2395       C  0.73909682  0.64153217  0.69088058     0.02900
C2396       C  0.71602683  0.63019683  0.69348999    -0.11400
C2397       C  0.71133913  0.61690580  0.71487828    -0.01400
C2398       C  0.72852689  0.61551002  0.73357027    -0.06600
H2399       H  0.77344910  0.64942843  0.70793207     0.05900
H2400       H  0.69403279  0.60781939  0.71734195     0.09300
Br2401     Br  0.78926071  0.58355470  0.73303989    -0.06300
Br2402     Br  0.78112973  0.67854315  0.80732361    -0.03200
Br2403     Br  0.74854783  0.66030726  0.66295264    -0.00400
Br2404     Br  0.72045000  0.59759433  0.76236231    -0.04700
C2405       C  0.43964978  0.85997822  0.85340774    -0.12100
C2406       C  0.45243685  0.88106770  0.84631211     0.03300
C2407       C  0.47772821  0.88199665  0.84890606    -0.12700
C2408       C  0.49060975  0.86221903  0.85854998     0.18200
C2409       C  0.47773799  0.84194399  0.86733658    -0.09700
C2410       C  0.45244774  0.84097555  0.86475902    -0.02700
H2411       H  0.48753550  0.89788263  0.84255585     0.04700
C2412       C  0.51738728  0.86182935  0.85657436     0.20200
H2413       H  0.44289310  0.82476695  0.87064255     0.09900
C2414       C  0.53194888  0.86324870  0.87748428    -0.16000
C2415       C  0.55736185  0.86165822  0.87580614     0.02900
C2416       C  0.56842766  0.85872452  0.85281135    -0.11400
C2417       C  0.55373528  0.85796022  0.83196275    -0.01400
C2418       C  0.52848943  0.85931183  0.83368096    -0.06600
H2419       H  0.52347987  0.86543241  0.89515656     0.05900
H2420       H  0.56189349  0.85554443  0.81417380     0.09300
Br2421     Br  0.49404253  0.81440118  0.88127264    -0.06300
Br2422     Br  0.43651321  0.90936692  0.83360515    -0.03200
Br2423     Br  0.57589264  0.86463086  0.90527505    -0.00400
Br2424     Br  0.50992169  0.85623605  0.80425740    -0.04700
C2425       C  0.64716429  0.93955051  0.85220811    -0.12100
C2426       C  0.62433442  0.95161313  0.85192944     0.03300
C2427       C  0.62333817  0.97713685  0.85273564    -0.12700
C2428       C  0.64467986  0.99103812  0.85414188     0.18200
C2429       C  0.66727780  0.97911164  0.85545678    -0.09700
C2430       C  0.66839454  0.95369726  0.85448358    -0.02700
H2431       H  0.60583343  0.98620804  0.85208347     0.04700
C2432       C  0.64338322  0.01796637  0.85330990     0.20200
H2433       H  0.68610120  0.94502521  0.85482778     0.09900
C2434       C  0.64302786  0.03136108  0.87501396    -0.16000
C2435       C  0.64427143  0.05686681  0.87473103     0.02900
C2436       C  0.64595324  0.06939347  0.85234724    -0.11400
C2437       C  0.64529041  0.05585959  0.83065195    -0.01400
C2438       C  0.64415295  0.03042964  0.83100660    -0.06600
H2439       H  0.64222419  0.02189642  0.89225785     0.05900
H2440       H  0.64655757  0.06503655  0.81327523     0.09300
Br2441     Br  0.69717195  0.99697634  0.85785581    -0.06300
Br2442     Br  0.59380881  0.93455089  0.85143166    -0.03200
Br2443     Br  0.64283011  0.07348593  0.90541107    -0.00400
Br2444     Br  0.64483450  0.01333855  0.80060472    -0.04700
C2445       C  0.65139850  0.85542437  0.93049516    -0.12100
C2446       C  0.65418552  0.83441007  0.94505923     0.03300
C2447       C  0.65299178  0.83630528  0.97036333    -0.12700
C2448       C  0.64929680  0.85882577  0.98168634     0.18200
C2449       C  0.64667384  0.87982433  0.96729545    -0.09700
C2450       C  0.64765732  0.87799546  0.94191494    -0.02700
H2451       H  0.65566117  0.82014148  0.98138291     0.04700
C2452       C  0.65061769  0.86011221  0.00850539     0.20200
H2453       H  0.64571523  0.89435410  0.93104508     0.09900
C2454       C  0.67332125  0.85705786  0.01968006    -0.16000
C2455       C  0.67551338  0.85678676  0.04498104     0.02900
C2456       C  0.65461293  0.85975092  0.05968690    -0.11400
C2457       C  0.63181741  0.86263466  0.04842729    -0.01400
C2458       C  0.62970648  0.86283201  0.02303781    -0.06600
H2459       H  0.68939513  0.85442153  0.00860130     0.05900
H2460       H  0.61558909  0.86466625  0.05940249     0.09300
Br2461     Br  0.64306616  0.91144875  0.98157349    -0.06300
Br2462     Br  0.66207587  0.80298630  0.93187006    -0.03200
Br2463     Br  0.70728172  0.85014313  0.05806089    -0.00400
Br2464     Br  0.59789304  0.86587493  0.00900820    -0.04700
C2465       C  0.63150101  0.80243232  0.78782511    -0.12100
C2466       C  0.64228790  0.80506267  0.76452989     0.03300
C2467       C  0.64158769  0.78573703  0.74794633    -0.12700
C2468       C  0.63034623  0.76366060  0.75385756     0.18200
C2469       C  0.61917725  0.76108477  0.77667060    -0.09700
C2470       C  0.61981207  0.78028868  0.79336161    -0.02700
H2471       H  0.65029849  0.78777080  0.73039601     0.04700
C2472       C  0.63138745  0.74328208  0.73628095     0.20200
H2473       H  0.61123195  0.77770989  0.81089043     0.09900
C2474       C  0.64672281  0.72345147  0.74102012    -0.16000
C2475       C  0.64939157  0.70451910  0.72415871     0.02900
C2476       C  0.63645507  0.70529332  0.70186435    -0.11400
C2477       C  0.62082622  0.72513665  0.69747737    -0.01400
C2478       C  0.61823759  0.74394175  0.71438941    -0.06600
H2479       H  0.65705432  0.72295352  0.75779506     0.05900
H2480       H  0.61046141  0.72611232  0.68075427     0.09300
Br2481     Br  0.60255411  0.73175540  0.78564519    -0.06300
Br2482     Br  0.65926840  0.83375561  0.75398663    -0.03200
Br2483     Br  0.67195057  0.67913000  0.73259498    -0.00400
Br2484     Br  0.59618889  0.76997996  0.70699832    -0.04700
C2485       C  0.70662622  0.79690874  0.86311230    -0.12100
C2486       C  0.70218519  0.77208206  0.85751058     0.03300
C2487       C  0.72131830  0.75523638  0.85817222    -0.12700
C2488       C  0.74500937  0.76224577  0.86454911     0.18200
C2489       C  0.74956312  0.78691582  0.86986414    -0.09700
C2490       C  0.73053515  0.80383815  0.86921814    -0.02700
H2491       H  0.71768962  0.73642533  0.85352674     0.04700
C2492       C  0.76479136  0.74373679  0.86473314     0.20200
H2493       H  0.73463594  0.82266020  0.87337762     0.09900
C2494       C  0.78479736  0.74674221  0.84921624    -0.16000
C2495       C  0.80392462  0.72993235  0.84882754     0.02900
C2496       C  0.80309059  0.70907748  0.86392199    -0.11400
C2497       C  0.78271257  0.70581775  0.87904277    -0.01400
C2498       C  0.76377851  0.72289075  0.87964354    -0.06600
H2499       H  0.78547278  0.76229070  0.83715831     0.05900
H2500       H  0.78156159  0.68999180  0.89069316     0.09300
Br2501     Br  0.78133284  0.79856819  0.87860177    -0.06300
Br2502     Br  0.67079177  0.75924495  0.84885725    -0.03200
Br2503     Br  0.82970994  0.73635744  0.82617654    -0.00400
Br2504     Br  0.73738121  0.71712308  0.90174976    -0.04700
C2505       C  0.85930103  0.85904866  0.56149395    -0.12100
C2506       C  0.85235478  0.83894609  0.54708133     0.03300
C2507       C  0.85373174  0.84034826  0.52175197    -0.12700
C2508       C  0.86168398  0.86162368  0.51023089     0.18200
C2509       C  0.86805929  0.88194623  0.52451346    -0.09700
C2510       C  0.86683561  0.88054898  0.54996115    -0.02700
H2511       H  0.84808189  0.82488827  0.51091204     0.04700
C2512       C  0.86191071  0.86240655  0.48328361     0.20200
H2513       H  0.87188754  0.89623512  0.56076611     0.09900
C2514       C  0.84384611  0.87558881  0.47111637    -0.16000
C2515       C  0.84197042  0.87505242  0.44572907     0.02900
C2516       C  0.85877172  0.86116545  0.43176739    -0.11400
C2517       C  0.87719103  0.84836886  0.44421151    -0.01400
C2518       C  0.87868645  0.84872037  0.46963790    -0.06600
H2519       H  0.83067666  0.88591283  0.48154877     0.05900
H2520       H  0.89023177  0.83749780  0.43420870     0.09300
Br2521     Br  0.87876538  0.91178614  0.51001738    -0.06300
Br2522     Br  0.83869495  0.80986130  0.56077267    -0.03200
Br2523     Br  0.81547345  0.89345676  0.43214884    -0.00400
Br2524     Br  0.90380379  0.83000467  0.48504999    -0.04700
C2525       C  0.06872636  0.85512450  0.64447090    -0.12100
C2526       C  0.05414261  0.83561752  0.63615657     0.03300
C2527       C  0.02874839  0.83729672  0.63734039    -0.12700
C2528       C  0.01735057  0.85804720  0.64683597     0.18200
C2529       C  0.03180826  0.87721714  0.65575638    -0.09700
C2530       C  0.05723930  0.87564525  0.65452989    -0.02700
H2531       H  0.01776632  0.82219564  0.63099925     0.04700
C2532       C  0.99038109  0.85912039  0.64738924     0.20200
H2533       H  0.06809234  0.89065195  0.66127534     0.09900
C2534       C  0.97817931  0.85788694  0.66971774    -0.16000
C2535       C  0.95269685  0.85762313  0.67077794     0.02900
C2536       C  0.93886524  0.85850695  0.64902016    -0.11400
C2537       C  0.95124304  0.85990842  0.62672383    -0.01400
C2538       C  0.97669399  0.86030576  0.62579361    -0.06600
H2539       H  0.98858389  0.85665091  0.68640791     0.05900
H2540       H  0.94108043  0.86073148  0.60987215     0.09300
Br2541     Br  0.01762197  0.90614407  0.66915813    -0.06300
Br2542     Br  0.06754068  0.80541771  0.62475941    -0.03200
Br2543     Br  0.93838288  0.85430000  0.70249801    -0.00400
Br2544     Br  0.99200505  0.86296488  0.59459142    -0.04700
C2545       C  0.85694298  0.94055897  0.64583952    -0.12100
C2546       C  0.87911838  0.95323822  0.64343152     0.03300
C2547       C  0.87914468  0.97869703  0.64370115    -0.12700
C2548       C  0.85738405  0.99175513  0.64658393     0.18200
C2549       C  0.83527993  0.97909711  0.64901720    -0.09700
C2550       C  0.83519595  0.95374268  0.64846670    -0.02700
H2551       H  0.89616700  0.98837597  0.64150849     0.04700
C2552       C  0.85791187  0.01856889  0.64640146     0.20200
H2553       H  0.81806047  0.94425703  0.65070789     0.09900
C2554       C  0.84737565  0.03098864  0.62684937    -0.16000
C2555       C  0.84658023  0.05639093  0.62632703     0.02900
C2556       C  0.85672343  0.06994261  0.64581357    -0.11400
C2557       C  0.86780136  0.05721078  0.66510898    -0.01400
C2558       C  0.86837659  0.03182675  0.66555118    -0.06600
H2559       H  0.83942453  0.02076635  0.61199931     0.05900
H2560       H  0.87567280  0.06696072  0.68030149     0.09300
Br2561     Br  0.80487595  0.99555967  0.65416775    -0.06300
Br2562     Br  0.90959510  0.93689925  0.63842005    -0.03200
Br2563     Br  0.83086706  0.07060122  0.59849611    -0.00400
Br2564     Br  0.88250326  0.01607879  0.69330506    -0.04700
C2565       C  0.80207187  0.79925615  0.62280978    -0.12100
C2566       C  0.78044193  0.80267515  0.60910152     0.03300
C2567       C  0.76269177  0.78444071  0.60864660    -0.12700
C2568       C  0.76581744  0.76284610  0.62170220     0.18200
C2569       C  0.78719579  0.75923980  0.63519958    -0.09700
C2570       C  0.80512371  0.77725033  0.63557190    -0.02700
H2571       H  0.74614432  0.78723752  0.59828938     0.04700
C2572       C  0.74614833  0.74463984  0.62175607     0.20200
H2573       H  0.82128246  0.77417553  0.64643259     0.09900
C2574       C  0.74649260  0.72569217  0.60474029    -0.16000
C2575       C  0.72817961  0.70798856  0.60457185     0.02900
C2576       C  0.70909660  0.70916079  0.62181962    -0.11400
C2577       C  0.70873251  0.72850565  0.63855173    -0.01400
C2578       C  0.72703837  0.74610464  0.63863079    -0.06600
H2579       H  0.76108206  0.72471788  0.59151026     0.05900
H2580       H  0.69438720  0.72972596  0.65201694     0.09300
Br2581     Br  0.79219555  0.73032954  0.65407879    -0.06300
Br2582     Br  0.77342132  0.83141384  0.59047652    -0.03200
Br2583     Br  0.72986775  0.68358066  0.57961505    -0.00400
Br2584     Br  0.72553637  0.77161446  0.66239521    -0.04700
C2585       C  0.87101421  0.80159186  0.70339745    -0.12100
C2586       C  0.87602337  0.77701337  0.69728552     0.03300
C2587       C  0.87629653  0.75925712  0.71539290    -0.12700
C2588       C  0.87134589  0.76509982  0.73962969     0.18200
C2589       C  0.86639386  0.78940837  0.74592538    -0.09700
C2590       C  0.86622866  0.80737241  0.72789422    -0.02700
H2591       H  0.88026992  0.74057741  0.71049771     0.04700
C2592       C  0.87190247  0.74540580  0.75789551     0.20200
H2593       H  0.86226893  0.82595257  0.73312906     0.09900
C2594       C  0.89009557  0.74545830  0.77576242    -0.16000
C2595       C  0.89210181  0.72634414  0.79241201     0.02900
C2596       C  0.87587308  0.70644117  0.79102274    -0.11400
C2597       C  0.85780068  0.70639434  0.77294038    -0.01400
C2598       C  0.85557334  0.72571526  0.75663348    -0.06600
H2599       H  0.90298499  0.76034784  0.77656780     0.05900
H2600       H  0.84479645  0.69160680  0.77194539     0.09300
Br2601     Br  0.85895943  0.79877812  0.77870626    -0.06300
Br2602     Br  0.88183502  0.76548413  0.66480137    -0.03200
Br2603     Br  0.91801038  0.72821613  0.81579144    -0.00400
Br2604     Br  0.82924683  0.72487011  0.73367828    -0.04700
C2605       C  0.79333840  0.87624419  0.69561399    -0.12100
C2606       C  0.77232740  0.86138857  0.69428668     0.03300
C2607       C  0.75463987  0.86291661  0.71247952    -0.12700
C2608       C  0.75748287  0.87882527  0.73215062     0.18200
C2609       C  0.77826908  0.89362435  0.73354493    -0.09700
C2610       C  0.79585988  0.89239089  0.71529349    -0.02700
H2611       H  0.73884237  0.85110084  0.71166719     0.04700
C2612       C  0.73969821  0.87806751  0.75213678     0.20200
H2613       H  0.81187145  0.90382657  0.71679634     0.09900
C2614       C  0.73981379  0.85793107  0.76769258    -0.16000
C2615       C  0.72352474  0.85645520  0.78708049     0.02900
C2616       C  0.70684937  0.87554291  0.79123366    -0.11400
C2617       C  0.70639207  0.89546009  0.77526471    -0.01400
C2618       C  0.72267453  0.89683098  0.75579093    -0.06600
H2619       H  0.75257609  0.84320306  0.76460766     0.05900
H2620       H  0.69334761  0.91000727  0.77796383     0.09300
Br2621     Br  0.78415106  0.91457397  0.76083290    -0.06300
Br2622     Br  0.76736776  0.83711325  0.66961453    -0.03200
Br2623     Br  0.72366078  0.82703238  0.80585839    -0.00400
Br2624     Br  0.72063112  0.92420163  0.73427892    -0.04700
loop_ 
_geom_bond_atom_site_label_1 
_geom_bond_atom_site_label_2 
_geom_bond_distance 
_geom_bond_site_symmetry_2 
_ccdc_geom_bond_type 
O1           C16   1.261       .  A
O1           Al9   1.904       .  S
C2           O12   1.261       .  A
C2            O3   1.261       .  A
C2         C2585   1.487       .  S
O3           Al5   1.916       .  S
O4            C6   1.261       .  A
O4           Al5   1.893       .  S
Al5          O13   1.903       .  S
Al5          O15   1.921       .  S
Al5          O14   1.778       .  S
C6           O19   1.262       .  A
C6         C2565   1.487       .  S
O7           C17   1.257       .  A
O7           Al9   1.887       .  S
O8           C21   1.261       .  A
O8          Al18   1.895       .  S
Al9          O22   1.910       .  S
Al9          O19   1.917       .  S
Al9          O14   1.780       .  S
O10          C17   1.263       .  A
O10         Al18   1.914       .  S
O11          C20   1.264       .  A
O11         Al18   1.919       .  S
O12         Al18   1.899       .  S
O13          C20   1.265       .  A
O14         Al18   1.781       .  S
O15          C16   1.263       .  A
C16        C2505   1.479       .  S
C17        C2605   1.480       .  S
C20        C2536   1.485       .  S
C21          O22   1.264       .  A
C21        C2545   1.473       .  S
O23          C38   1.262       .  A
O23         Al31   1.901       .  S
C24          O34   1.258       .  A
C24          O25   1.264       .  A
C24        C2465   1.492       .  S
O25         Al27   1.923       .  S
O26          C28   1.257       .  A
O26         Al27   1.889       .  S
Al27         O35   1.893       .  S
Al27         O37   1.914       .  S
Al27         O36   1.780       .  S
C28          O41   1.267       .  A
C28        C2485   1.494       .  S
O29          C39   1.258       .  A
O29         Al31   1.889       .  S
O30          C43   1.260       .  A
O30         Al40   1.896       .  S
Al31         O44   1.932       .  S
Al31         O41   1.932       .  S
Al31         O36   1.779       .  S
O32          C39   1.261       .  A
O32         Al40   1.913       .  S
O33          C42   1.263       .  A
O33         Al40   1.910       .  S
O34         Al40   1.895       .  S
O35          C42   1.260       .  A
O36         Al40   1.782       .  S
O37          C38   1.262       .  A
C38        C2445   1.480       .  S
C39        C2616   1.471       .  S
C42        C2416   1.475       .  S
C43          O44   1.267       .  A
C43        C2425   1.492       .  S
O45          C60   1.260       .  A
O45         Al53   1.901       .  S
C46          O56   1.260       .  A
C46          O47   1.262       .  A
C46        C2596   1.478       .  S
O47         Al49   1.914       .  S
O48          C50   1.258       .  A
O48         Al49   1.892       .  S
Al49         O57   1.896       .  S
Al49         O59   1.909       .  S
Al49         O58   1.779       .  S
C50          O63   1.265       .  A
C50        C2496   1.488       .  S
O51          C61   1.259       .  A
O51         Al53   1.895       .  S
O52          C65   1.261       .  A
O52         Al62   1.895       .  S
Al53         O66   1.920       .  S
Al53         O63   1.926       .  S
Al53         O58   1.779       .  S
O54          C61   1.263       .  A
O54         Al62   1.920       .  S
O55          C64   1.263       .  A
O55         Al62   1.923       .  S
O56         Al62   1.891       .  S
O57          C64   1.261       .  A
O58         Al62   1.781       .  S
O59          C60   1.263       .  A
C60        C2365   1.491       .  S
C61        C2385   1.478       .  S
C64        C2345   1.491       .  S
C65          O66   1.265       .  A
C65        C2336   1.478       .  S
O67          C82   1.259       .  A
O67         Al75   1.898       .  S
C68          O78   1.259       .  A
C68          O69   1.264       .  A
C68        C2476   1.489       .  S
O69         Al71   1.921       .  S
O70          C72   1.261       .  A
O70         Al71   1.889       .  S
Al71         O79   1.899       .  S
Al71         O81   1.921       .  S
Al71         O80   1.780       .  S
C72          O85   1.263       .  A
C72        C2576   1.481       .  S
O73          C83   1.258       .  A
O73         Al75   1.892       .  S
O74          C87   1.261       .  A
O74         Al84   1.896       .  S
Al75         O88   1.904       .  S
Al75         O85   1.920       .  S
Al75         O80   1.780       .  S
O76          C83   1.265       .  A
O76         Al84   1.923       .  S
O77          C86   1.264       .  A
O77         Al84   1.921       .  S
O78         Al84   1.896       .  S
O79          C86   1.262       .  A
O80         Al84   1.781       .  S
O81          C82   1.263       .  A
C82        C2316   1.475       .  S
C83        C2396   1.490       .  S
C86        C2276   1.476       .  S
C87          O88   1.261       .  A
C87        C2285   1.476       .  S
O89         C104   1.261       .  A
O89         Al97   1.901       .  S
C90         O100   1.258       .  A
C90          O91   1.263       .  A
C90        C2236   1.487       .  S
O91         Al93   1.920       .  S
O92          C94   1.258       .  A
O92         Al93   1.886       .  S
Al93        O101   1.886       .  S
Al93        O103   1.925       .  S
Al93        O102   1.777       .  S
C94         O107   1.262       .  A
C94        C2216   1.476       .  S
O95         C105   1.260       .  A
O95         Al97   1.889       .  S
O96         C109   1.259       .  A
O96        Al106   1.896       .  S
Al97        O110   1.906       .  S
Al97        O107   1.915       .  S
Al97        O102   1.782       .  S
O98         C105   1.263       .  A
O98        Al106   1.913       .  S
O99         C108   1.266       .  A
O99        Al106   1.916       .  S
O100       Al106   1.897       .  S
O101        C108   1.259       .  A
O102       Al106   1.780       .  S
O103        C104   1.266       .  A
C104       C2165   1.488       .  S
C105       C2256   1.474       .  S
C108       C2556   1.486       .  S
C109        O110   1.262       .  A
C109       C2185   1.479       .  S
O111        C126   1.259       .  A
O111       Al119   1.896       .  S
C112        O122   1.261       .  A
C112        O113   1.260       .  A
C112       C2125   1.486       .  S
O113       Al115   1.910       .  S
O114        C116   1.263       .  A
O114       Al115   1.909       .  S
Al115       O123   1.911       .  S
Al115       O125   1.908       .  S
Al115       O124   1.781       .  S
C116        O129   1.262       .  A
C116       C2145   1.485       .  S
O117        C127   1.259       .  A
O117       Al119   1.892       .  S
O118        C131   1.260       .  A
O118       Al128   1.897       .  S
Al119       O132   1.914       .  S
Al119       O129   1.916       .  S
Al119       O124   1.782       .  S
O120        C127   1.260       .  A
O120       Al128   1.902       .  S
O121        C130   1.261       .  A
O121       Al128   1.905       .  S
O122       Al128   1.896       .  S
O123        C130   1.265       .  A
O124       Al128   1.781       .  S
O125        C126   1.263       .  A
C126       C2105   1.486       .  S
C127       C2245   1.473       .  S
C130       C2325   1.485       .  S
C131        O132   1.262       .  A
C131       C2085   1.482       .  S
O133        C148   1.262       .  A
O133       Al141   1.888       .  S
C134        O144   1.259       .  A
C134        O135   1.265       .  A
C134       C2225   1.490       .  S
O135       Al137   1.925       .  S
O136        C138   1.260       .  A
O136       Al137   1.905       .  S
Al137       O145   1.901       .  S
Al137       O147   1.928       .  S
Al137       O146   1.781       .  S
C138        O151   1.262       .  A
C138       C2156   1.489       .  S
O139        C149   1.257       .  A
O139       Al141   1.880       .  S
O140        C153   1.261       .  A
O140       Al150   1.907       .  S
Al141       O154   1.926       .  S
Al141       O151   1.920       .  S
Al141       O146   1.784       .  S
O142        C149   1.266       .  A
O142       Al150   1.926       .  S
O143        C152   1.264       .  A
O143       Al150   1.920       .  S
O144       Al150   1.897       .  S
O145        C152   1.261       .  A
O146       Al150   1.782       .  S
O147        C148   1.265       .  A
C148       C2045   1.491       .  S
C149       C2065   1.483       .  S
C152       C2436   1.486       .  S
C153        O154   1.263       .  A
C153       C2025   1.486       .  S
O155        C170   1.262       .  A
O155       Al163   1.899       .  S
C156        O166   1.257       .  A
C156        O157   1.261       .  A
C156       C2136   1.482       .  S
O157       Al159   1.919       .  S
O158        C160   1.258       .  A
O158       Al159   1.888       .  S
Al159       O167   1.885       .  S
Al159       O169   1.920       .  S
Al159       O168   1.781       .  S
C160        O173   1.264       .  A
C160       C2205   1.477       .  S
O161        C171   1.258       .  A
O161       Al163   1.888       .  S
O162        C175   1.257       .  A
O162       Al172   1.886       .  S
Al163       O176   1.925       .  S
Al163       O173   1.916       .  S
Al163       O168   1.779       .  S
O164        C171   1.264       .  A
O164       Al172   1.913       .  S
O165        C174   1.263       .  A
O165       Al172   1.917       .  S
O166       Al172   1.885       .  S
O167        C174   1.261       .  A
O168       Al172   1.779       .  S
O169        C170   1.264       .  A
C170       C2005   1.484       .  S
C171       C2076   1.483       .  S
C174       C2296   1.486       .  S
C175        O176   1.264       .  A
C175       C1985   1.487       .  S
O177        C192   1.266       .  A
O177       Al185   1.931       .  S
C178        O188   1.266       .  A
C178        O179   1.259       .  A
C178       C1945   1.469       .  S
O179       Al181   1.890       .  S
O180        C182   1.264       .  A
O180       Al181   1.926       .  S
Al181       O189   1.921       .  S
Al181       O191   1.905       .  S
Al181       O190   1.783       .  S
C182        O195   1.260       .  A
C182       C1965   1.482       .  S
O183        C193   1.261       .  A
O183       Al185   1.929       .  S
O184        C197   1.269       .  A
O184       Al194   1.934       .  S
Al185       O198   1.892       .  S
Al185       O195   1.898       .  S
Al185       O190   1.785       .  S
O186        C193   1.257       .  A
O186       Al194   1.890       .  S
O187        C196   1.258       .  A
O187       Al194   1.894       .  S
O188       Al194   1.929       .  S
O189        C196   1.262       .  A
O190       Al194   1.782       .  S
O191        C192   1.263       .  A
C192       C1905   1.483       .  S
C193       C1925   1.488       .  S
C196       C2525   1.483       .  S
C197        O198   1.263       .  A
C197       C1896   1.486       .  S
O199        C214   1.264       .  A
O199       Al207   1.923       .  S
C200        O210   1.263       .  A
C200        O201   1.254       .  A
C200       C1856   1.482       .  S
O201       Al203   1.882       .  S
O202        C204   1.264       .  A
O202       Al203   1.926       .  S
Al203       O211   1.929       .  S
Al203       O213   1.880       .  S
Al203       O212   1.777       .  S
C204        O217   1.262       .  A
C204       C1976   1.491       .  S
O205        C215   1.265       .  A
O205       Al207   1.928       .  S
O206        C219   1.264       .  A
O206       Al216   1.929       .  S
Al207       O220   1.903       .  S
Al207       O217   1.898       .  S
Al207       O212   1.778       .  S
O208        C215   1.257       .  A
O208       Al216   1.881       .  S
O209        C218   1.260       .  A
O209       Al216   1.885       .  S
O210       Al216   1.921       .  S
O211        C218   1.267       .  A
O212       Al216   1.781       .  S
O213        C214   1.256       .  A
C214       C1805   1.477       .  S
C215       C1865   1.465       .  S
C218       C2405   1.477       .  S
C219        O220   1.261       .  A
C219       C1836   1.477       .  S
O221        C236   1.258       .  A
O221       Al229   1.888       .  S
C222        O232   1.261       .  A
C222        O223   1.260       .  A
C222       C1956   1.494       .  S
O223       Al225   1.917       .  S
O224        C226   1.261       .  A
O224       Al225   1.901       .  S
Al225       O233   1.905       .  S
Al225       O235   1.916       .  S
Al225       O234   1.777       .  S
C226        O239   1.264       .  A
C226       C1785   1.482       .  S
O227        C237   1.256       .  A
O227       Al229   1.879       .  S
O228        C241   1.259       .  A
O228       Al238   1.896       .  S
Al229       O242   1.913       .  S
Al229       O239   1.920       .  S
Al229       O234   1.781       .  S
O230        C237   1.264       .  A
O230       Al238   1.914       .  S
O231        C240   1.264       .  A
O231       Al238   1.915       .  S
O232       Al238   1.904       .  S
O233        C240   1.264       .  A
O234       Al238   1.778       .  S
O235        C236   1.263       .  A
C236       C1745   1.473       .  S
C237       C1876   1.478       .  S
C240       C2356   1.482       .  S
C241        O242   1.263       .  A
C241       C1765   1.489       .  S
O243        C258   1.260       .  A
O243       Al251   1.900       .  S
C244        O254   1.257       .  A
C244        O245   1.265       .  A
C244       C1845   1.471       .  S
O245       Al247   1.929       .  S
O246        C248   1.258       .  A
O246       Al247   1.893       .  S
Al247       O255   1.907       .  S
Al247       O257   1.928       .  S
Al247       O256   1.784       .  S
C248        O261   1.265       .  A
C248       C1796   1.490       .  S
O249        C259   1.260       .  A
O249       Al251   1.899       .  S
O250        C263   1.261       .  A
O250       Al260   1.892       .  S
Al251       O264   1.920       .  S
Al251       O261   1.922       .  S
Al251       O256   1.779       .  S
O252        C259   1.262       .  A
O252       Al260   1.926       .  S
O253        C262   1.263       .  A
O253       Al260   1.923       .  S
O254       Al260   1.876       .  S
O255        C262   1.264       .  A
O256       Al260   1.781       .  S
O257        C258   1.266       .  A
C258       C1705   1.487       .  S
C259       C1936   1.487       .  S
C262       C2265   1.495       .  S
C263        O264   1.265       .  A
C263       C1736   1.475       .  S
O265        C280   1.265       .  A
O265       Al273   1.920       .  S
C266        O276   1.267       .  A
C266        O267   1.259       .  A
C266       C1665   1.477       .  S
O267       Al269   1.884       .  S
O268        C270   1.264       .  A
O268       Al269   1.930       .  S
Al269       O277   1.929       .  S
Al269       O279   1.888       .  S
Al269       O278   1.782       .  S
C270        O283   1.259       .  A
C270       C1645   1.488       .  S
O271        C281   1.262       .  A
O271       Al273   1.915       .  S
O272        C285   1.266       .  A
O272       Al282   1.927       .  S
Al273       O286   1.897       .  S
Al273       O283   1.897       .  S
Al273       O278   1.785       .  S
O274        C281   1.258       .  A
O274       Al282   1.888       .  S
O275        C284   1.261       .  A
O275       Al282   1.900       .  S
O276       Al282   1.935       .  S
O277        C284   1.263       .  A
O278       Al282   1.781       .  S
O279        C280   1.261       .  A
C280       C2196   1.467       .  S
C281       C1685   1.473       .  S
C284       C1916   1.496       .  S
C285        O286   1.262       .  A
C285       C1625   1.484       .  S
O287        C302   1.258       .  A
O287       Al295   1.890       .  S
C288        O298   1.259       .  A
C288        O289   1.265       .  A
C288       C1605   1.487       .  S
O289       Al291   1.918       .  S
O290        C292   1.261       .  A
O290       Al291   1.891       .  S
Al291       O299   1.908       .  S
Al291       O301   1.918       .  S
Al291       O300   1.780       .  S
C292        O305   1.264       .  A
C292       C1585   1.483       .  S
O293        C303   1.256       .  A
O293       Al295   1.888       .  S
O294        C307   1.259       .  A
O294       Al304   1.887       .  S
Al295       O308   1.924       .  S
Al295       O305   1.923       .  S
Al295       O300   1.782       .  S
O296        C303   1.261       .  A
O296       Al304   1.913       .  S
O297        C306   1.264       .  A
O297       Al304   1.916       .  S
O298       Al304   1.893       .  S
O299        C306   1.263       .  A
O300       Al304   1.782       .  S
O301        C302   1.264       .  A
C302       C1996   1.483       .  S
C303       C1696   1.484       .  S
C306       C1716   1.493       .  S
C307        O308   1.267       .  A
C307       C1565   1.490       .  S
O309        C324   1.261       .  A
O309       Al317   1.896       .  S
C310        O320   1.258       .  A
C310        O311   1.267       .  A
C310       C1676   1.483       .  S
O311       Al313   1.935       .  S
O312        C314   1.258       .  A
O312       Al313   1.893       .  S
Al313       O321   1.902       .  S
Al313       O323   1.936       .  S
Al313       O322   1.781       .  S
C314        O327   1.260       .  A
C314       C1596   1.475       .  S
O315        C325   1.261       .  A
O315       Al317   1.901       .  S
O316        C329   1.261       .  A
O316       Al326   1.893       .  S
Al317       O330   1.913       .  S
Al317       O327   1.910       .  S
Al317       O322   1.782       .  S
O318        C325   1.261       .  A
O318       Al326   1.912       .  S
O319        C328   1.260       .  A
O319       Al326   1.905       .  S
O320       Al326   1.883       .  S
O321        C328   1.261       .  A
O322       Al326   1.781       .  S
O323        C324   1.269       .  A
C324       C2036   1.490       .  S
C325       C1545   1.479       .  S
C328       C1816   1.478       .  S
C329        O330   1.262       .  A
C329       C1525   1.475       .  S
O331        C346   1.263       .  A
O331       Al339   1.897       .  S
C332        O342   1.257       .  A
C332        O333   1.262       .  A
C332       C1616   1.471       .  S
O333       Al335   1.920       .  S
O334        C336   1.260       .  A
O334       Al335   1.897       .  S
Al335       O343   1.889       .  S
Al335       O345   1.923       .  S
Al335       O344   1.778       .  S
C336        O349   1.263       .  A
C336       C1656   1.475       .  S
O337        C347   1.261       .  A
O337       Al339   1.891       .  S
O338        C351   1.259       .  A
O338       Al348   1.896       .  S
Al339       O352   1.916       .  S
Al339       O349   1.924       .  S
Al339       O344   1.777       .  S
O340        C347   1.262       .  A
O340       Al348   1.915       .  S
O341        C350   1.263       .  A
O341       Al348   1.919       .  S
O342       Al348   1.887       .  S
O343        C350   1.262       .  A
O344       Al348   1.779       .  S
O345        C346   1.263       .  A
C346       C2096   1.492       .  S
C347       C1556   1.482       .  S
C350       C1756   1.488       .  S
C351        O352   1.264       .  A
C351       C1505   1.482       .  S
O353        C368   1.265       .  A
O353       Al361   1.908       .  S
C354        O364   1.258       .  A
C354        O355   1.261       .  A
C354       C1445   1.477       .  S
O355       Al357   1.908       .  S
O356        C358   1.262       .  A
O356       Al357   1.909       .  S
Al357       O365   1.909       .  S
Al357       O367   1.907       .  S
Al357       O366   1.784       .  S
C358        O371   1.261       .  A
C358       C1485   1.484       .  S
O359        C369   1.263       .  A
O359       Al361   1.906       .  S
O360        C373   1.261       .  A
O360       Al370   1.904       .  S
Al361       O374   1.915       .  S
Al361       O371   1.915       .  S
Al361       O366   1.787       .  S
O362        C369   1.262       .  A
O362       Al370   1.912       .  S
O363        C372   1.260       .  A
O363       Al370   1.912       .  S
O364       Al370   1.893       .  S
O365        C372   1.264       .  A
O366       Al370   1.783       .  S
O367        C368   1.260       .  A
C368       C1405   1.492       .  S
C369       C1476   1.488       .  S
C372       C2516   1.496       .  S
C373        O374   1.263       .  A
C373       C1425   1.486       .  S
O375        C390   1.258       .  A
O375       Al383   1.889       .  S
C376        O386   1.255       .  A
C376        O377   1.263       .  A
C376       C1385   1.481       .  S
O377       Al379   1.923       .  S
O378        C380   1.261       .  A
O378       Al379   1.894       .  S
Al379       O387   1.891       .  S
Al379       O389   1.922       .  S
Al379       O388   1.782       .  S
C380        O393   1.264       .  A
C380       C1496   1.491       .  S
O381        C391   1.256       .  A
O381       Al383   1.882       .  S
O382        C395   1.257       .  A
O382       Al392   1.887       .  S
Al383       O396   1.926       .  S
Al383       O393   1.928       .  S
Al383       O388   1.782       .  S
O384        C391   1.265       .  A
O384       Al392   1.921       .  S
O385        C394   1.265       .  A
O385       Al392   1.921       .  S
O386       Al392   1.881       .  S
O387        C394   1.260       .  A
O388       Al392   1.783       .  S
O389        C390   1.265       .  A
C390       C1345   1.486       .  S
C391       C1365   1.484       .  S
C394       C2376   1.484       .  S
C395        O396   1.265       .  A
C395       C1325   1.488       .  S
O397        C412   1.261       .  A
O397       Al405   1.902       .  S
C398        O408   1.258       .  A
C398        O399   1.264       .  A
C398       C1396   1.485       .  S
O399       Al401   1.914       .  S
O400        C402   1.260       .  A
O400       Al401   1.893       .  S
Al401       O409   1.902       .  S
Al401       O411   1.914       .  S
Al401       O410   1.780       .  S
C402        O415   1.266       .  A
C402       C1316   1.485       .  S
O403        C413   1.258       .  A
O403       Al405   1.890       .  S
O404        C417   1.258       .  A
O404       Al414   1.889       .  S
Al405       O418   1.929       .  S
Al405       O415   1.930       .  S
Al405       O410   1.779       .  S
O406        C413   1.262       .  A
O406       Al414   1.925       .  S
O407        C416   1.263       .  A
O407       Al414   1.918       .  S
O408       Al414   1.891       .  S
O409        C416   1.262       .  A
O410       Al414   1.785       .  S
O411        C412   1.262       .  A
C412       C1265   1.478       .  S
C413       C1465   1.480       .  S
C416       C2456   1.480       .  S
C417        O418   1.268       .  A
C417       C1285   1.487       .  S
O419        C434   1.262       .  A
O419       Al427   1.896       .  S
C420        O430   1.257       .  A
C420        O421   1.261       .  A
C420       C1456   1.486       .  S
O421       Al423   1.905       .  S
O422        C424   1.260       .  A
O422       Al423   1.904       .  S
Al423       O431   1.896       .  S
Al423       O433   1.912       .  S
Al423       O432   1.777       .  S
C424        O437   1.262       .  A
C424       C1305   1.478       .  S
O425        C435   1.259       .  A
O425       Al427   1.888       .  S
O426        C439   1.260       .  A
O426       Al436   1.897       .  S
Al427       O440   1.916       .  S
Al427       O437   1.925       .  S
Al427       O432   1.784       .  S
O428        C435   1.266       .  A
O428       Al436   1.920       .  S
O429        C438   1.266       .  A
O429       Al436   1.918       .  S
O430       Al436   1.895       .  S
O431        C438   1.260       .  A
O432       Al436   1.780       .  S
O433        C434   1.263       .  A
C434       C1236   1.477       .  S
C435       C1376   1.487       .  S
C438       C2305   1.491       .  S
C439        O440   1.260       .  A
C439       C1256   1.488       .  S
O441        C456   1.258       .  A
O441       Al449   1.894       .  S
C442        O452   1.258       .  A
C442        O443   1.263       .  A
C442       C1165   1.461       .  S
O443       Al445   1.921       .  S
O444        C446   1.257       .  A
O444       Al445   1.888       .  S
Al445       O453   1.900       .  S
Al445       O455   1.911       .  S
Al445       O454   1.783       .  S
C446        O459   1.266       .  A
C446       C1185   1.491       .  S
O447        C457   1.259       .  A
O447       Al449   1.897       .  S
O448        C461   1.258       .  A
O448       Al458   1.878       .  S
Al449       O462   1.930       .  S
Al449       O459   1.924       .  S
Al449       O454   1.780       .  S
O450        C457   1.259       .  A
O450       Al458   1.917       .  S
O451        C460   1.261       .  A
O451       Al458   1.916       .  S
O452       Al458   1.879       .  S
O453        C460   1.261       .  A
O454       Al458   1.777       .  S
O455        C456   1.261       .  A
C456       C1296   1.465       .  S
C457       C1205   1.485       .  S
C460       C2056   1.487       .  S
C461        O462   1.269       .  A
C461       C1145   1.487       .  S
O463        C478   1.264       .  A
O463       Al471   1.917       .  S
C464        O474   1.261       .  A
C464        O465   1.258       .  A
C464       C1116   1.474       .  S
O465       Al467   1.893       .  S
O466        C468   1.263       .  A
O466       Al467   1.917       .  S
Al467       O475   1.926       .  S
Al467       O477   1.894       .  S
Al467       O476   1.782       .  S
C468        O481   1.256       .  A
C468       C1125   1.483       .  S
O469        C479   1.264       .  A
O469       Al471   1.923       .  S
O470        C483   1.264       .  A
O470       Al480   1.926       .  S
Al471       O484   1.883       .  S
Al471       O481   1.882       .  S
Al471       O476   1.783       .  S
O472        C479   1.259       .  A
O472       Al480   1.890       .  S
O473        C482   1.263       .  A
O473       Al480   1.895       .  S
O474       Al480   1.921       .  S
O475        C482   1.266       .  A
O476       Al480   1.785       .  S
O477        C478   1.261       .  A
C478       C1245   1.476       .  S
C479       C1216   1.472       .  S
C482       C2016   1.478       .  S
C483        O484   1.258       .  A
C483       C1096   1.478       .  S
O485        C500   1.263       .  A
O485       Al493   1.906       .  S
C486        O496   1.259       .  A
C486        O487   1.262       .  A
C486       C1105   1.483       .  S
O487       Al489   1.915       .  S
O488        C490   1.260       .  A
O488       Al489   1.900       .  S
Al489       O497   1.899       .  S
Al489       O499   1.921       .  S
Al489       O498   1.780       .  S
C490        O503   1.261       .  A
C490       C1196   1.473       .  S
O491        C501   1.261       .  A
O491       Al493   1.898       .  S
O492        C505   1.260       .  A
O492       Al502   1.901       .  S
Al493       O506   1.913       .  S
Al493       O503   1.914       .  S
Al493       O498   1.782       .  S
O494        C501   1.266       .  A
O494       Al502   1.932       .  S
O495        C504   1.266       .  A
O495       Al502   1.921       .  S
O496       Al502   1.895       .  S
O497        C504   1.261       .  A
O498       Al502   1.781       .  S
O499        C500   1.266       .  A
C500       C1436   1.488       .  S
C501       C1076   1.481       .  S
C504       C2176   1.493       .  S
C505        O506   1.262       .  A
C505       C1045   1.477       .  S
O507        C522   1.262       .  A
O507       Al515   1.911       .  S
C508        O518   1.257       .  A
C508        O509   1.264       .  A
C508       C1176   1.472       .  S
O509       Al511   1.919       .  S
O510        C512   1.260       .  A
O510       Al511   1.890       .  S
Al511       O519   1.900       .  S
Al511       O521   1.903       .  S
Al511       O520   1.787       .  S
C512        O525   1.263       .  A
C512       C1136   1.467       .  S
O513        C523   1.263       .  A
O513       Al515   1.917       .  S
O514        C527   1.258       .  A
O514       Al524   1.884       .  S
Al515       O528   1.919       .  S
Al515       O525   1.909       .  S
Al515       O520   1.782       .  S
O516        C523   1.257       .  A
O516       Al524   1.903       .  S
O517        C526   1.260       .  A
O517       Al524   1.905       .  S
O518       Al524   1.880       .  S
O519        C526   1.260       .  A
O520       Al524   1.781       .  S
O521        C522   1.260       .  A
C522       C1336   1.481       .  S
C523       C1065   1.496       .  S
C526       C2116   1.468       .  S
C527        O528   1.265       .  A
C527       C1025   1.486       .  S
O529        C544   1.263       .  A
O529       Al537   1.902       .  S
C530        O540   1.257       .  A
C530        O531   1.258       .  A
C530        C976   1.481       .  S
O531       Al533   1.907       .  S
O532        C534   1.259       .  A
O532       Al533   1.894       .  S
Al533       O541   1.884       .  S
Al533       O543   1.917       .  S
Al533       O542   1.781       .  S
C534        O547   1.259       .  A
C534       C1005   1.473       .  S
O535        C545   1.259       .  A
O535       Al537   1.884       .  S
O536        C549   1.262       .  A
O536       Al546   1.909       .  S
Al537       O550   1.902       .  S
Al537       O547   1.910       .  S
Al537       O542   1.785       .  S
O538        C545   1.269       .  A
O538       Al546   1.932       .  S
O539        C548   1.270       .  A
O539       Al546   1.936       .  S
O540       Al546   1.896       .  S
O541        C548   1.259       .  A
O542       Al546   1.784       .  S
O543        C544   1.266       .  A
C544       C1056   1.489       .  S
C545        C985   1.486       .  S
C548       C1636   1.489       .  S
C549        O550   1.257       .  A
C549        C956   1.493       .  S
O551        C566   1.262       .  A
O551       Al559   1.897       .  S
C552        O562   1.260       .  A
C552        O553   1.261       .  A
C552       C1016   1.481       .  S
O553       Al555   1.910       .  S
O554        C556   1.257       .  A
O554       Al555   1.891       .  S
Al555       O563   1.891       .  S
Al555       O565   1.908       .  S
Al555       O564   1.780       .  S
C556        O569   1.262       .  A
C556        C905   1.486       .  S
O557        C567   1.261       .  A
O557       Al559   1.894       .  S
O558        C571   1.262       .  A
O558       Al568   1.902       .  S
Al559       O572   1.911       .  S
Al559       O569   1.911       .  S
Al559       O564   1.779       .  S
O560        C567   1.262       .  A
O560       Al568   1.923       .  S
O561        C570   1.264       .  A
O561       Al568   1.920       .  S
O562       Al568   1.889       .  S
O563        C570   1.259       .  A
O564       Al568   1.782       .  S
O565        C566   1.262       .  A
C566        C885   1.479       .  S
C567        C925   1.487       .  S
C570       C1036   1.478       .  S
C571        O572   1.264       .  A
C571       C1516   1.481       .  S
O573        C588   1.265       .  A
O573       Al581   1.916       .  S
C574        O584   1.259       .  A
C574        O575   1.263       .  A
C574        C865   1.494       .  S
O575       Al577   1.919       .  S
O576        C578   1.259       .  A
O576       Al577   1.887       .  S
Al577       O585   1.890       .  S
Al577       O587   1.921       .  S
Al577       O586   1.777       .  S
C578        O591   1.263       .  A
C578        C996   1.471       .  S
O579        C589   1.261       .  A
O579       Al581   1.899       .  S
O580        C593   1.262       .  A
O580       Al590   1.896       .  S
Al581       O594   1.914       .  S
Al581       O591   1.918       .  S
Al581       O586   1.781       .  S
O582        C589   1.262       .  A
O582       Al590   1.917       .  S
O583        C592   1.265       .  A
O583       Al590   1.915       .  S
O584       Al590   1.902       .  S
O585        C592   1.260       .  A
O586       Al590   1.782       .  S
O587        C588   1.262       .  A
C588        C856   1.501       .  S
C589        C936   1.480       .  S
C592       C1156   1.474       .  S
C593        O594   1.262       .  A
C593       C1536   1.485       .  S
O595        C610   1.262       .  A
O595       Al603   1.900       .  S
C596        O606   1.261       .  A
C596        O597   1.264       .  A
C596        C876   1.485       .  S
O597       Al599   1.917       .  S
O598        C600   1.257       .  A
O598       Al599   1.891       .  S
Al599       O607   1.899       .  S
Al599       O609   1.914       .  S
Al599       O608   1.782       .  S
C600        O613   1.262       .  A
C600        C916   1.483       .  S
O601        C611   1.260       .  A
O601       Al603   1.898       .  S
O602        C615   1.263       .  A
O602       Al612   1.904       .  S
Al603       O616   1.910       .  S
Al603       O613   1.909       .  S
Al603       O608   1.783       .  S
O604        C611   1.261       .  A
O604       Al612   1.914       .  S
O605        C614   1.263       .  A
O605       Al612   1.911       .  S
O606       Al612   1.901       .  S
O607        C614   1.260       .  A
O608       Al612   1.782       .  S
O609        C610   1.263       .  A
C610        C825   1.482       .  S
C611        C965   1.481       .  S
C614       C1085   1.483       .  S
C615        O616   1.263       .  A
C615       C1576   1.482       .  S
O617        C632   1.262       .  A
O617       Al625   1.901       .  S
C618        O628   1.259       .  A
C618        O619   1.261       .  A
C618        C785   1.481       .  S
O619       Al621   1.915       .  S
O620        C622   1.259       .  A
O620       Al621   1.889       .  S
Al621       O629   1.887       .  S
Al621       O631   1.913       .  S
Al621       O630   1.776       .  S
C622        O635   1.264       .  A
C622        C765   1.476       .  S
O623        C633   1.260       .  A
O623       Al625   1.890       .  S
O624        C637   1.259       .  A
O624       Al634   1.894       .  S
Al625       O638   1.916       .  S
Al625       O635   1.928       .  S
Al625       O630   1.783       .  S
O626        C633   1.267       .  A
O626       Al634   1.926       .  S
O627        C636   1.266       .  A
O627       Al634   1.929       .  S
O628       Al634   1.889       .  S
O629        C636   1.259       .  A
O630       Al634   1.779       .  S
O631        C632   1.265       .  A
C632       C1776   1.477       .  S
C633        C816   1.487       .  S
C636       C1356   1.481       .  S
C637        O638   1.262       .  A
C637        C896   1.471       .  S
O639        C654   1.263       .  A
O639       Al647   1.896       .  S
C640        O650   1.257       .  A
C640        O641   1.262       .  A
C640        C736   1.489       .  S
O641       Al643   1.915       .  S
O642        C644   1.262       .  A
O642       Al643   1.910       .  S
Al643       O651   1.905       .  S
Al643       O653   1.918       .  S
Al643       O652   1.784       .  S
C644        O657   1.261       .  A
C644        C745   1.483       .  S
O645        C655   1.259       .  A
O645       Al647   1.892       .  S
O646        C659   1.261       .  A
O646       Al656   1.906       .  S
Al647       O660   1.903       .  S
Al647       O657   1.904       .  S
Al647       O652   1.780       .  S
O648        C655   1.264       .  A
O648       Al656   1.912       .  S
O649        C658   1.261       .  A
O649       Al656   1.908       .  S
O650       Al656   1.893       .  S
O651        C658   1.265       .  A
O652       Al656   1.782       .  S
O653        C654   1.262       .  A
C654       C1725   1.490       .  S
C655        C805   1.489       .  S
C658       C1225   1.491       .  S
C659        O660   1.259       .  A
C659        C836   1.487       .  S
O661        C676   1.262       .  A
O661       Al669   1.905       .  S
C662        O672   1.260       .  A
C662        O663   1.260       .  A
C662        C796   1.481       .  S
O663       Al665   1.913       .  S
O664        C666   1.258       .  A
O664       Al665   1.895       .  S
Al665       O673   1.893       .  S
Al665       O675   1.920       .  S
Al665       O674   1.783       .  S
C666        O679   1.263       .  A
C666        C756   1.486       .  S
O667        C677   1.262       .  A
O667       Al669   1.903       .  S
O668        C681   1.262       .  A
O668       Al678   1.902       .  S
Al669       O682   1.914       .  S
Al669       O679   1.917       .  S
Al669       O674   1.779       .  S
O670        C677   1.264       .  A
O670       Al678   1.921       .  S
O671        C680   1.264       .  A
O671       Al678   1.917       .  S
O672       Al678   1.894       .  S
O673        C680   1.262       .  A
O674       Al678   1.779       .  S
O675        C676   1.264       .  A
C676       C1885   1.471       .  S
C677        C716   1.477       .  S
C680       C1416   1.483       .  S
C681        O682   1.261       .  A
C681        C945   1.487       .  S
O683        C698   1.262       .  A
O683       Al691   1.900       .  S
C684        O694   1.259       .  A
C684        O685   1.266       .  A
C684        C725   1.477       .  S
O685       Al687   1.929       .  S
O686        C688   1.258       .  A
O686       Al687   1.891       .  S
Al687       O695   1.900       .  S
Al687       O697   1.928       .  S
Al687       O696   1.784       .  S
C688        O701   1.262       .  A
C688        C776   1.483       .  S
O689        C699   1.262       .  A
O689       Al691   1.906       .  S
O690        C703   1.264       .  A
O690       Al700   1.910       .  S
Al691       O704   1.931       .  S
Al691       O701   1.922       .  S
Al691       O696   1.781       .  S
O692        C699   1.259       .  A
O692       Al700   1.914       .  S
O693        C702   1.263       .  A
O693       Al700   1.917       .  S
O694       Al700   1.892       .  S
O695        C702   1.259       .  A
O696       Al700   1.783       .  S
O697        C698   1.267       .  A
C698       C1825   1.489       .  S
C699        C705   1.493       .  S
C702       C1276   1.492       .  S
C703        O704   1.267       .  A
C703        C845   1.493       .  S
C705        C706   1.423       .  A
C705        C710   1.410       .  A
C706        C707   1.399       .  A
C706       Br722   1.923       .  S
C707        C708   1.397       .  A
C707        H711   1.083       .  S
C708        C712   1.478       .  S
C708        C709   1.405       .  A
C709        C710   1.401       .  A
C709       Br721   1.918       .  S
C710        H713   1.083       .  S
C712        C714   1.401       .  A
C712        C718   1.408       .  A
C714        C715   1.398       .  A
C714        H719   1.083       .  S
C715        C716   1.411       .  A
C715       Br723   1.920       .  S
C716        C717   1.406       .  A
C717        C718   1.402       .  A
C717        H720   1.084       .  S
C718       Br724   1.918       .  S
C725        C726   1.412       .  A
C725        C730   1.403       .  A
C726        C727   1.399       .  A
C726       Br742   1.919       .  S
C727        C728   1.402       .  A
C727        H731   1.084       .  S
C728        C732   1.480       .  S
C728        C729   1.408       .  A
C729        C730   1.400       .  A
C729       Br741   1.918       .  S
C730        H733   1.083       .  S
C732        C734   1.401       .  A
C732        C738   1.405       .  A
C734        C735   1.401       .  A
C734        H739   1.083       .  S
C735        C736   1.418       .  A
C735       Br743   1.922       .  S
C736        C737   1.409       .  A
C737        C738   1.398       .  A
C737        H740   1.083       .  S
C738       Br744   1.919       .  S
C745        C746   1.414       .  A
C745        C750   1.409       .  A
C746        C747   1.401       .  A
C746       Br762   1.918       .  S
C747        C748   1.401       .  A
C747        H751   1.083       .  S
C748        C752   1.474       .  S
C748        C749   1.403       .  A
C749        C750   1.396       .  A
C749       Br761   1.918       .  S
C750        H753   1.083       .  S
C752        C754   1.400       .  A
C752        C758   1.403       .  A
C754        C755   1.401       .  A
C754        H759   1.085       .  S
C755        C756   1.419       .  A
C755       Br763   1.923       .  S
C756        C757   1.408       .  A
C757        C758   1.396       .  A
C757        H760   1.084       .  S
C758       Br764   1.918       .  S
C765        C766   1.411       .  A
C765        C770   1.403       .  A
C766        C767   1.402       .  A
C766       Br782   1.921       .  S
C767        C768   1.404       .  A
C767        H771   1.083       .  S
C768        C772   1.481       .  S
C768        C769   1.409       .  A
C769        C770   1.396       .  A
C769       Br781   1.920       .  S
C770        H773   1.083       .  S
C772        C774   1.402       .  A
C772        C778   1.408       .  A
C774        C775   1.402       .  A
C774        H779   1.084       .  S
C775        C776   1.414       .  A
C775       Br783   1.920       .  S
C776        C777   1.406       .  A
C777        C778   1.398       .  A
C777        H780   1.084       .  S
C778       Br784   1.920       .  S
C785        C786   1.416       .  A
C785        C790   1.407       .  A
C786        C787   1.399       .  A
C786       Br802   1.922       .  S
C787        C788   1.400       .  A
C787        H791   1.084       .  S
C788        C792   1.475       .  S
C788        C789   1.406       .  A
C789        C790   1.397       .  A
C789       Br801   1.919       .  S
C790        H793   1.084       .  S
C792        C794   1.400       .  A
C792        C798   1.405       .  A
C794        C795   1.400       .  A
C794        H799   1.086       .  S
C795        C796   1.416       .  A
C795       Br803   1.922       .  S
C796        C797   1.406       .  A
C797        C798   1.397       .  A
C797        H800   1.085       .  S
C798       Br804   1.919       .  S
C805        C806   1.419       .  A
C805        C810   1.410       .  A
C806        C807   1.400       .  A
C806       Br822   1.924       .  S
C807        C808   1.401       .  A
C807        H811   1.084       .  S
C808        C812   1.480       .  S
C808        C809   1.405       .  A
C809        C810   1.397       .  A
C809       Br821   1.919       .  S
C810        H813   1.083       .  S
C812        C814   1.401       .  A
C812        C818   1.406       .  A
C814        C815   1.400       .  A
C814        H819   1.083       .  S
C815        C816   1.418       .  A
C815       Br823   1.923       .  S
C816        C817   1.408       .  A
C817        C818   1.397       .  A
C817        H820   1.083       .  S
C818       Br824   1.919       .  S
C825        C826   1.415       .  A
C825        C830   1.407       .  A
C826        C827   1.398       .  A
C826       Br842   1.922       .  S
C827        C828   1.399       .  A
C827        H831   1.084       .  S
C828        C832   1.477       .  S
C828        C829   1.406       .  A
C829        C830   1.402       .  A
C829       Br841   1.917       .  S
C830        H833   1.083       .  S
C832        C834   1.398       .  A
C832        C838   1.406       .  A
C834        C835   1.397       .  A
C834        H839   1.083       .  S
C835        C836   1.419       .  A
C835       Br843   1.924       .  S
C836        C837   1.408       .  A
C837        C838   1.402       .  A
C837        H840   1.083       .  S
C838       Br844   1.917       .  S
C845        C846   1.417       .  A
C845        C850   1.409       .  A
C846        C847   1.401       .  A
C846       Br862   1.922       .  S
C847        C848   1.401       .  A
C847        H851   1.084       .  S
C848        C852   1.490   1_565  S
C848        C849   1.410       .  A
C849        C850   1.407       .  A
C849       Br861   1.918       .  S
C850        H853   1.084       .  S
C852        C854   1.400       .  A
C852        C858   1.408       .  A
C854        C855   1.403       .  A
C854        H859   1.084       .  S
C855        C856   1.424       .  A
C855       Br863   1.923       .  S
C856        C857   1.410       .  A
C857        C858   1.404       .  A
C857        H860   1.083       .  S
C858       Br864   1.918       .  S
C865        C866   1.420       .  A
C865        C870   1.411       .  A
C866        C867   1.403       .  A
C866       Br882   1.922       .  S
C867        C868   1.402       .  A
C867        H871   1.083       .  S
C868        C872   1.481       .  S
C868        C869   1.404       .  A
C869        C870   1.398       .  A
C869       Br881   1.919       .  S
C870        H873   1.083       .  S
C872        C874   1.402       .  A
C872        C878   1.406       .  A
C874        C875   1.401       .  A
C874        H879   1.084       .  S
C875        C876   1.416       .  A
C875       Br883   1.921       .  S
C876        C877   1.408       .  A
C877        C878   1.399       .  A
C877        H880   1.084       .  S
C878       Br884   1.918       .  S
C885        C886   1.416       .  A
C885        C890   1.406       .  A
C886        C887   1.396       .  A
C886       Br902   1.924       .  S
C887        C888   1.399       .  A
C887        H891   1.084       .  S
C888        C892   1.475       .  S
C888        C889   1.407       .  A
C889        C890   1.399       .  A
C889       Br901   1.918       .  S
C890        H893   1.083       .  S
C892        C894   1.401       .  A
C892        C898   1.408       .  A
C894        C895   1.396       .  A
C894        H899   1.084       .  S
C895        C896   1.411       .  A
C895       Br903   1.922       .  S
C896        C897   1.403       .  A
C897        C898   1.400       .  A
C897        H900   1.083       .  S
C898       Br904   1.918       .  S
C905        C906   1.419       .  A
C905        C910   1.409       .  A
C906        C907   1.400       .  A
C906       Br922   1.924       .  S
C907        C908   1.401       .  A
C907        H911   1.083       .  S
C908        C912   1.475       .  S
C908        C909   1.403       .  A
C909        C910   1.394       .  A
C909       Br921   1.919       .  S
C910        H913   1.083       .  S
C912        C914   1.401       .  A
C912        C918   1.404       .  A
C914        C915   1.398       .  A
C914        H919   1.084       .  S
C915        C916   1.417       .  A
C915       Br923   1.923       .  S
C916        C917   1.408       .  A
C917        C918   1.396       .  A
C917        H920   1.084       .  S
C918       Br924   1.919       .  S
C925        C926   1.417       .  A
C925        C930   1.408       .  A
C926        C927   1.399       .  A
C926       Br942   1.922       .  S
C927        C928   1.402       .  A
C927        H931   1.085       .  S
C928        C932   1.484       .  S
C928        C929   1.408       .  A
C929        C930   1.399       .  A
C929       Br941   1.919       .  S
C930        H933   1.084       .  S
C932        C934   1.404       .  A
C932        C938   1.410       .  A
C934        C935   1.401       .  A
C934        H939   1.084       .  S
C935        C936   1.413       .  A
C935       Br943   1.920       .  S
C936        C937   1.404       .  A
C937        C938   1.399       .  A
C937        H940   1.084       .  S
C938       Br944   1.921       .  S
C945        C946   1.418       .  A
C945        C950   1.407       .  A
C946        C947   1.399       .  A
C946       Br962   1.923       .  S
C947        C948   1.401       .  A
C947        H951   1.083       .  S
C948        C952   1.483   1_565  S
C948        C949   1.408       .  A
C949        C950   1.401       .  A
C949       Br961   1.918       .  S
C950        H953   1.083       .  S
C952        C954   1.399       .  A
C952        C958   1.407       .  A
C954        C955   1.399       .  A
C954        H959   1.084       .  S
C955        C956   1.423       .  A
C955       Br963   1.925       .  S
C956        C957   1.409       .  A
C957        C958   1.402       .  A
C957        H960   1.083       .  S
C958       Br964   1.918       .  S
C965        C966   1.416       .  A
C965        C970   1.405       .  A
C966        C967   1.401       .  A
C966       Br982   1.922       .  S
C967        C968   1.401       .  A
C967        H971   1.085       .  S
C968        C972   1.476       .  S
C968        C969   1.406       .  A
C969        C970   1.397       .  A
C969       Br981   1.919       .  S
C970        H973   1.084       .  S
C972        C974   1.400       .  A
C972        C978   1.407       .  A
C974        C975   1.399       .  A
C974        H979   1.085       .  S
C975        C976   1.415       .  A
C975       Br983   1.922       .  S
C976        C977   1.406       .  A
C977        C978   1.399       .  A
C977        H980   1.085       .  S
C978       Br984   1.919       .  S
C985        C986   1.419       .  A
C985        C990   1.407       .  A
C986        C987   1.397       .  A
C986      Br1002   1.921       .  S
C987        C988   1.398       .  A
C987        H991   1.084       .  S
C988        C992   1.475       .  S
C988        C989   1.406       .  A
C989        C990   1.400       .  A
C989      Br1001   1.919       .  S
C990        H993   1.083       .  S
C992        C994   1.402       .  A
C992        C998   1.407       .  A
C994        C995   1.398       .  A
C994        H999   1.084       .  S
C995        C996   1.411       .  A
C995      Br1003   1.922       .  S
C996        C997   1.403       .  A
C997        C998   1.398       .  A
C997       H1000   1.084       .  S
C998      Br1004   1.918       .  S
C1005      C1006   1.414       .  A
C1005      C1010   1.404       .  A
C1006      C1007   1.397       .  A
C1006     Br1022   1.922       .  S
C1007      C1008   1.399       .  A
C1007      H1011   1.084       .  S
C1008      C1012   1.469       .  S
C1008      C1009   1.405       .  A
C1009      C1010   1.396       .  A
C1009     Br1021   1.919       .  S
C1010      H1013   1.084       .  S
C1012      C1014   1.398       .  A
C1012      C1018   1.404       .  A
C1014      C1015   1.396       .  A
C1014      H1019   1.084       .  S
C1015      C1016   1.417       .  A
C1015     Br1023   1.922       .  S
C1016      C1017   1.408       .  A
C1017      C1018   1.396       .  A
C1017      H1020   1.083       .  S
C1018     Br1024   1.919       .  S
C1025      C1026   1.419       .  A
C1025      C1030   1.409       .  A
C1026      C1027   1.399       .  A
C1026     Br1042   1.924       .  S
C1027      C1028   1.399       .  A
C1027      H1031   1.084       .  S
C1028      C1032   1.475   1_655  S
C1028      C1029   1.404       .  A
C1029      C1030   1.397       .  A
C1029     Br1041   1.919       .  S
C1030      H1033   1.083       .  S
C1032      C1034   1.402       .  A
C1032      C1038   1.406       .  A
C1034      C1035   1.400       .  A
C1034      H1039   1.084       .  S
C1035      C1036   1.413       .  A
C1035     Br1043   1.920       .  S
C1036      C1037   1.405       .  A
C1037      C1038   1.397       .  A
C1037      H1040   1.084       .  S
C1038     Br1044   1.920       .  S
C1045      C1046   1.412       .  A
C1045      C1050   1.404       .  A
C1046      C1047   1.403       .  A
C1046     Br1062   1.920       .  S
C1047      C1048   1.403       .  A
C1047      H1051   1.083       .  S
C1048      C1052   1.477   1_655  S
C1048      C1049   1.406       .  A
C1049      C1050   1.395       .  A
C1049     Br1061   1.919       .  S
C1050      H1053   1.084       .  S
C1052      C1054   1.402       .  A
C1052      C1058   1.403       .  A
C1054      C1055   1.404       .  A
C1054      H1059   1.084       .  S
C1055      C1056   1.418       .  A
C1055     Br1063   1.922       .  S
C1056      C1057   1.409       .  A
C1057      C1058   1.395       .  A
C1057      H1060   1.083       .  S
C1058     Br1064   1.920       .  S
C1065      C1066   1.424       .  A
C1065      C1070   1.410       .  A
C1066      C1067   1.400       .  A
C1066     Br1082   1.925       .  S
C1067      C1068   1.397       .  A
C1067      H1071   1.084       .  S
C1068      C1072   1.483       .  S
C1068      C1069   1.407       .  A
C1069      C1070   1.404       .  A
C1069     Br1081   1.917       .  S
C1070      H1073   1.084       .  S
C1072      C1074   1.404       .  A
C1072      C1078   1.407       .  A
C1074      C1075   1.404       .  A
C1074      H1079   1.084       .  S
C1075      C1076   1.412       .  A
C1075     Br1083   1.920       .  S
C1076      C1077   1.405       .  A
C1077      C1078   1.400       .  A
C1077      H1080   1.084       .  S
C1078     Br1084   1.918       .  S
C1085      C1086   1.414       .  A
C1085      C1090   1.407       .  A
C1086      C1087   1.402       .  A
C1086     Br1102   1.921       .  S
C1087      C1088   1.404       .  A
C1087      H1091   1.083       .  S
C1088      C1092   1.481       .  S
C1088      C1089   1.407       .  A
C1089      C1090   1.396       .  A
C1089     Br1101   1.920       .  S
C1090      H1093   1.083       .  S
C1092      C1094   1.404       .  A
C1092      C1098   1.407       .  A
C1094      C1095   1.400       .  A
C1094      H1099   1.084       .  S
C1095      C1096   1.411       .  A
C1095     Br1103   1.920       .  S
C1096      C1097   1.406       .  A
C1097      C1098   1.397       .  A
C1097      H1100   1.084       .  S
C1098     Br1104   1.920       .  S
C1105      C1106   1.414       .  A
C1105      C1110   1.408       .  A
C1106      C1107   1.400       .  A
C1106     Br1122   1.920       .  S
C1107      C1108   1.400       .  A
C1107      H1111   1.084       .  S
C1108      C1112   1.476       .  S
C1108      C1109   1.405       .  A
C1109      C1110   1.399       .  A
C1109     Br1121   1.919       .  S
C1110      H1113   1.084       .  S
C1112      C1114   1.401       .  A
C1112      C1118   1.407       .  A
C1114      C1115   1.399       .  A
C1114      H1119   1.084       .  S
C1115      C1116   1.411       .  A
C1115     Br1123   1.921       .  S
C1116      C1117   1.404       .  A
C1117      C1118   1.400       .  A
C1117      H1120   1.084       .  S
C1118     Br1124   1.918       .  S
C1125      C1126   1.418       .  A
C1125      C1130   1.408       .  A
C1126      C1127   1.398       .  A
C1126     Br1142   1.923       .  S
C1127      C1128   1.399       .  A
C1127      H1131   1.083       .  S
C1128      C1132   1.474       .  S
C1128      C1129   1.406       .  A
C1129      C1130   1.398       .  A
C1129     Br1141   1.919       .  S
C1130      H1133   1.083       .  S
C1132      C1134   1.404       .  A
C1132      C1138   1.407       .  A
C1134      C1135   1.401       .  A
C1134      H1139   1.084       .  S
C1135      C1136   1.408       .  A
C1135     Br1143   1.919       .  S
C1136      C1137   1.401       .  A
C1137      C1138   1.394       .  A
C1137      H1140   1.084       .  S
C1138     Br1144   1.919       .  S
C1145      C1146   1.420       .  A
C1145      C1150   1.409       .  A
C1146      C1147   1.396       .  A
C1146     Br1162   1.925       .  S
C1147      C1148   1.399       .  A
C1147      H1151   1.084       .  S
C1148      C1152   1.476       .  S
C1148      C1149   1.405       .  A
C1149      C1150   1.398       .  A
C1149     Br1161   1.919       .  S
C1150      H1153   1.083       .  S
C1152      C1154   1.403       .  A
C1152      C1158   1.407       .  A
C1154      C1155   1.401       .  A
C1154      H1159   1.083       .  S
C1155      C1156   1.412       .  A
C1155     Br1163   1.921       .  S
C1156      C1157   1.404       .  A
C1157      C1158   1.393       .  A
C1157      H1160   1.084       .  S
C1158     Br1164   1.921       .  S
C1165      C1166   1.407       .  A
C1165      C1170   1.401       .  A
C1166      C1167   1.394       .  A
C1166     Br1182   1.921       .  S
C1167      C1168   1.402       .  A
C1167      H1171   1.084       .  S
C1168      C1172   1.471       .  S
C1168      C1169   1.408       .  A
C1169      C1170   1.397       .  A
C1169     Br1181   1.918       .  S
C1170      H1173   1.084       .  S
C1172      C1174   1.400       .  A
C1172      C1178   1.407       .  A
C1174      C1175   1.396       .  A
C1174      H1179   1.085       .  S
C1175      C1176   1.413       .  A
C1175     Br1183   1.921       .  S
C1176      C1177   1.404       .  A
C1177      C1178   1.396       .  A
C1177      H1180   1.085       .  S
C1178     Br1184   1.920       .  S
C1185      C1186   1.422       .  A
C1185      C1190   1.409       .  A
C1186      C1187   1.401       .  A
C1186     Br1202   1.923       .  S
C1187      C1188   1.399       .  A
C1187      H1191   1.084       .  S
C1188      C1192   1.476       .  S
C1188      C1189   1.403       .  A
C1189      C1190   1.397       .  A
C1189     Br1201   1.918       .  S
C1190      H1193   1.082       .  S
C1192      C1194   1.402       .  A
C1192      C1198   1.406       .  A
C1194      C1195   1.399       .  A
C1194      H1199   1.084       .  S
C1195      C1196   1.410       .  A
C1195     Br1203   1.919       .  S
C1196      C1197   1.404       .  A
C1197      C1198   1.398       .  A
C1197      H1200   1.085       .  S
C1198     Br1204   1.918       .  S
C1205      C1206   1.418       .  A
C1205      C1210   1.407       .  A
C1206      C1207   1.400       .  A
C1206     Br1222   1.922       .  S
C1207      C1208   1.400       .  A
C1207      H1211   1.084       .  S
C1208      C1212   1.478       .  S
C1208      C1209   1.406       .  A
C1209      C1210   1.398       .  A
C1209     Br1221   1.919       .  S
C1210      H1213   1.083       .  S
C1212      C1214   1.403       .  A
C1212      C1218   1.408       .  A
C1214      C1215   1.401       .  A
C1214      H1219   1.084       .  S
C1215      C1216   1.410       .  A
C1215     Br1223   1.921       .  S
C1216      C1217   1.403       .  A
C1217      C1218   1.397       .  A
C1217      H1220   1.084       .  S
C1218     Br1224   1.919       .  S
C1225      C1226   1.422       .  A
C1225      C1230   1.409       .  A
C1226      C1227   1.397       .  A
C1226     Br1242   1.924       .  S
C1227      C1228   1.398       .  A
C1227      H1231   1.084       .  S
C1228      C1232   1.478       .  S
C1228      C1229   1.406       .  A
C1229      C1230   1.400       .  A
C1229     Br1241   1.919       .  S
C1230      H1233   1.083       .  S
C1232      C1234   1.401       .  A
C1232      C1238   1.408       .  A
C1234      C1235   1.395       .  A
C1234      H1239   1.083       .  S
C1235      C1236   1.414       .  A
C1235     Br1243   1.923       .  S
C1236      C1237   1.406       .  A
C1237      C1238   1.400       .  A
C1237      H1240   1.083       .  S
C1238     Br1244   1.918       .  S
C1245      C1246   1.411       .  A
C1245      C1250   1.405       .  A
C1246      C1247   1.398       .  A
C1246     Br1262   1.920       .  S
C1247      C1248   1.401       .  A
C1247      H1251   1.084       .  S
C1248      C1252   1.479       .  S
C1248      C1249   1.407       .  A
C1249      C1250   1.401       .  A
C1249     Br1261   1.918       .  S
C1250      H1253   1.084       .  S
C1252      C1254   1.401       .  A
C1252      C1258   1.405       .  A
C1254      C1255   1.401       .  A
C1254      H1259   1.084       .  S
C1255      C1256   1.419       .  A
C1255     Br1263   1.922       .  S
C1256      C1257   1.408       .  A
C1257      C1258   1.399       .  A
C1257      H1260   1.083       .  S
C1258     Br1264   1.918       .  S
C1265      C1266   1.411       .  A
C1265      C1270   1.405       .  A
C1266      C1267   1.403       .  A
C1266     Br1282   1.919       .  S
C1267      C1268   1.403       .  A
C1267      H1271   1.083       .  S
C1268      C1272   1.479       .  S
C1268      C1269   1.407       .  A
C1269      C1270   1.398       .  A
C1269     Br1281   1.919       .  S
C1270      H1273   1.084       .  S
C1272      C1274   1.401       .  A
C1272      C1278   1.404       .  A
C1274      C1275   1.403       .  A
C1274      H1279   1.083       .  S
C1275      C1276   1.419       .  A
C1275     Br1283   1.921       .  S
C1276      C1277   1.410       .  A
C1277      C1278   1.398       .  A
C1277      H1280   1.083       .  S
C1278     Br1284   1.919       .  S
C1285      C1286   1.420       .  A
C1285      C1290   1.407       .  A
C1286      C1287   1.400       .  A
C1286     Br1302   1.922       .  S
C1287      C1288   1.399       .  A
C1287      H1291   1.084       .  S
C1288      C1292   1.476   1_565  S
C1288      C1289   1.404       .  A
C1289      C1290   1.398       .  A
C1289     Br1301   1.918       .  S
C1290      H1293   1.083       .  S
C1292      C1294   1.403       .  A
C1292      C1298   1.409       .  A
C1294      C1295   1.402       .  A
C1294      H1299   1.083       .  S
C1295      C1296   1.407       .  A
C1295     Br1303   1.918       .  S
C1296      C1297   1.399       .  A
C1297      C1298   1.396       .  A
C1297      H1300   1.083       .  S
C1298     Br1304   1.920       .  S
C1305      C1306   1.410       .  A
C1305      C1310   1.404       .  A
C1306      C1307   1.401       .  A
C1306     Br1322   1.921       .  S
C1307      C1308   1.405       .  A
C1307      H1311   1.083       .  S
C1308      C1312   1.490       .  S
C1308      C1309   1.412       .  A
C1309      C1310   1.402       .  A
C1309     Br1321   1.919       .  S
C1310      H1313   1.084       .  S
C1312      C1314   1.405       .  A
C1312      C1318   1.411       .  A
C1314      C1315   1.402       .  A
C1314      H1319   1.083       .  S
C1315      C1316   1.414       .  A
C1315     Br1323   1.921       .  S
C1316      C1317   1.405       .  A
C1317      C1318   1.401       .  A
C1317      H1320   1.083       .  S
C1318     Br1324   1.919       .  S
C1325      C1326   1.420       .  A
C1325      C1330   1.407       .  A
C1326      C1327   1.404       .  A
C1326     Br1342   1.923       .  S
C1327      C1328   1.401       .  A
C1327      H1331   1.084       .  S
C1328      C1332   1.478       .  S
C1328      C1329   1.404       .  A
C1329      C1330   1.397       .  A
C1329     Br1341   1.919       .  S
C1330      H1333   1.083       .  S
C1332      C1334   1.403       .  A
C1332      C1338   1.405       .  A
C1334      C1335   1.403       .  A
C1334      H1339   1.085       .  S
C1335      C1336   1.412       .  A
C1335     Br1343   1.919       .  S
C1336      C1337   1.406       .  A
C1337      C1338   1.397       .  A
C1337      H1340   1.085       .  S
C1338     Br1344   1.919       .  S
C1345      C1346   1.417       .  A
C1345      C1350   1.408       .  A
C1346      C1347   1.401       .  A
C1346     Br1362   1.922       .  S
C1347      C1348   1.400       .  A
C1347      H1351   1.083       .  S
C1348      C1352   1.476   1_655  S
C1348      C1349   1.405       .  A
C1349      C1350   1.398       .  A
C1349     Br1361   1.918   1_655  S
C1350      H1353   1.083       .  S
C1352      C1354   1.401       .  A
C1352      C1358   1.406       .  A
C1354      C1355   1.401       .  A
C1354      H1359   1.083       .  S
C1355      C1356   1.415       .  A
C1355     Br1363   1.921       .  S
C1356      C1357   1.406       .  A
C1357      C1358   1.398       .  A
C1357      H1360   1.083       .  S
C1358     Br1364   1.919       .  S
C1365      C1366   1.420       .  A
C1365      C1370   1.406       .  A
C1366      C1367   1.400       .  A
C1366     Br1382   1.923       .  S
C1367      C1368   1.400       .  A
C1367      H1371   1.085       .  S
C1368      C1372   1.476       .  S
C1368      C1369   1.405       .  A
C1369      C1370   1.395       .  A
C1369     Br1381   1.919       .  S
C1370      H1373   1.084       .  S
C1372      C1374   1.399       .  A
C1372      C1378   1.404       .  A
C1374      C1375   1.397       .  A
C1374      H1379   1.085       .  S
C1375      C1376   1.419       .  A
C1375     Br1383   1.923       .  S
C1376      C1377   1.410       .  A
C1377      C1378   1.398       .  A
C1377      H1380   1.084       .  S
C1378     Br1384   1.919       .  S
C1385      C1386   1.417       .  A
C1385      C1390   1.407       .  A
C1386      C1387   1.397       .  A
C1386     Br1402   1.923       .  S
C1387      C1388   1.399       .  A
C1387      H1391   1.084       .  S
C1388      C1392   1.472       .  S
C1388      C1389   1.404       .  A
C1389      C1390   1.399       .  A
C1389     Br1401   1.918       .  S
C1390      H1393   1.084       .  S
C1392      C1394   1.400       .  A
C1392      C1398   1.402       .  A
C1394      C1395   1.401       .  A
C1394      H1399   1.082       .  S
C1395      C1396   1.419       .  A
C1395     Br1403   1.924       .  S
C1396      C1397   1.409       .  A
C1397      C1398   1.394       .  A
C1397      H1400   1.082       .  S
C1398     Br1404   1.918       .  S
C1405      C1406   1.422       .  A
C1405      C1410   1.409       .  A
C1406      C1407   1.397       .  A
C1406     Br1422   1.924       .  S
C1407      C1408   1.399       .  A
C1407      H1411   1.084       .  S
C1408      C1412   1.481   1_655  S
C1408      C1409   1.407       .  A
C1409      C1410   1.401       .  A
C1409     Br1421   1.919       .  S
C1410      H1413   1.083       .  S
C1412      C1414   1.401       .  A
C1412      C1418   1.408       .  A
C1414      C1415   1.398       .  A
C1414      H1419   1.084       .  S
C1415      C1416   1.416       .  A
C1415     Br1423   1.922       .  S
C1416      C1417   1.407       .  A
C1417      C1418   1.400       .  A
C1417      H1420   1.084       .  S
C1418     Br1424   1.919       .  S
C1425      C1426   1.415       .  A
C1425      C1430   1.407       .  A
C1426      C1427   1.404       .  A
C1426     Br1442   1.920       .  S
C1427      C1428   1.403       .  A
C1427      H1431   1.083       .  S
C1428      C1432   1.480   1_565  S
C1428      C1429   1.405       .  A
C1429      C1430   1.398       .  A
C1429     Br1441   1.919       .  S
C1430      H1433   1.083       .  S
C1432      C1434   1.403       .  A
C1432      C1438   1.405       .  A
C1434      C1435   1.405       .  A
C1434      H1439   1.083       .  S
C1435      C1436   1.416       .  A
C1435     Br1443   1.921       .  S
C1436      C1437   1.408       .  A
C1437      C1438   1.398       .  A
C1437      H1440   1.083       .  S
C1438     Br1444   1.919       .  S
C1445      C1446   1.412       .  A
C1445      C1450   1.406       .  A
C1446      C1447   1.397       .  A
C1446     Br1462   1.922       .  S
C1447      C1448   1.403       .  A
C1447      H1451   1.083       .  S
C1448      C1452   1.480       .  S
C1448      C1449   1.407       .  A
C1449      C1450   1.398       .  A
C1449     Br1461   1.920       .  S
C1450      H1453   1.084       .  S
C1452      C1454   1.403       .  A
C1452      C1458   1.406       .  A
C1454      C1455   1.401       .  A
C1454      H1459   1.083       .  S
C1455      C1456   1.417       .  A
C1455     Br1463   1.922       .  S
C1456      C1457   1.408       .  A
C1457      C1458   1.394       .  A
C1457      H1460   1.083       .  S
C1458     Br1464   1.920       .  S
C1465      C1466   1.412       .  A
C1465      C1470   1.405       .  A
C1466      C1467   1.403       .  A
C1466     Br1482   1.920       .  S
C1467      C1468   1.404       .  A
C1467      H1471   1.084       .  S
C1468      C1472   1.480       .  S
C1468      C1469   1.407       .  A
C1469      C1470   1.397       .  A
C1469     Br1481   1.919       .  S
C1470      H1473   1.084       .  S
C1472      C1474   1.399       .  A
C1472      C1478   1.407       .  A
C1474      C1475   1.400       .  A
C1474      H1479   1.084       .  S
C1475      C1476   1.418       .  A
C1475     Br1483   1.922       .  S
C1476      C1477   1.408       .  A
C1477      C1478   1.401       .  A
C1477      H1480   1.084       .  S
C1478     Br1484   1.919       .  S
C1485      C1486   1.416       .  A
C1485      C1490   1.405       .  A
C1486      C1487   1.402       .  A
C1486     Br1502   1.922       .  S
C1487      C1488   1.401       .  A
C1487      H1491   1.085       .  S
C1488      C1492   1.482       .  S
C1488      C1489   1.408       .  A
C1489      C1490   1.401       .  A
C1489     Br1501   1.918       .  S
C1490      H1493   1.085       .  S
C1492      C1494   1.401       .  A
C1492      C1498   1.405       .  A
C1494      C1495   1.403       .  A
C1494      H1499   1.084       .  S
C1495      C1496   1.418       .  A
C1495     Br1503   1.922       .  S
C1496      C1497   1.409       .  A
C1497      C1498   1.399       .  A
C1497      H1500   1.083       .  S
C1498     Br1504   1.919       .  S
C1505      C1506   1.415       .  A
C1505      C1510   1.406       .  A
C1506      C1507   1.403       .  A
C1506     Br1522   1.921       .  S
C1507      C1508   1.402       .  A
C1507      H1511   1.084       .  S
C1508      C1512   1.475   1_556  S
C1508      C1509   1.404       .  A
C1509      C1510   1.395       .  A
C1509     Br1521   1.919       .  S
C1510      H1513   1.083       .  S
C1512      C1514   1.402       .  A
C1512      C1518   1.404       .  A
C1514      C1515   1.402       .  A
C1514      H1519   1.083       .  S
C1515      C1516   1.414       .  A
C1515     Br1523   1.920       .  S
C1516      C1517   1.407       .  A
C1517      C1518   1.395       .  A
C1517      H1520   1.084       .  S
C1518     Br1524   1.919       .  S
C1525      C1526   1.412       .  A
C1525      C1530   1.404       .  A
C1526      C1527   1.396       .  A
C1526     Br1542   1.922       .  S
C1527      C1528   1.403       .  A
C1527      H1531   1.083       .  S
C1528      C1532   1.484   1_556  S
C1528      C1529   1.411       .  A
C1529      C1530   1.399       .  A
C1529     Br1541   1.920       .  S
C1530      H1533   1.083       .  S
C1532      C1534   1.402       .  A
C1532      C1538   1.410       .  A
C1534      C1535   1.397       .  A
C1534      H1539   1.083       .  S
C1535      C1536   1.416       .  A
C1535     Br1543   1.922       .  S
C1536      C1537   1.407       .  A
C1537      C1538   1.398       .  A
C1537      H1540   1.083       .  S
C1538     Br1544   1.921       .  S
C1545      C1546   1.415       .  A
C1545      C1550   1.406       .  A
C1546      C1547   1.397       .  A
C1546     Br1562   1.921       .  S
C1547      C1548   1.399       .  A
C1547      H1551   1.083       .  S
C1548      C1552   1.474       .  S
C1548      C1549   1.407       .  A
C1549      C1550   1.400       .  A
C1549     Br1561   1.919       .  S
C1550      H1553   1.083       .  S
C1552      C1554   1.400       .  A
C1552      C1558   1.405       .  A
C1554      C1555   1.398       .  A
C1554      H1559   1.083       .  S
C1555      C1556   1.416       .  A
C1555     Br1563   1.922       .  S
C1556      C1557   1.408       .  A
C1557      C1558   1.397       .  A
C1557      H1560   1.083       .  S
C1558     Br1564   1.918       .  S
C1565      C1566   1.421       .  A
C1565      C1570   1.408       .  A
C1566      C1567   1.401       .  A
C1566     Br1582   1.924       .  S
C1567      C1568   1.401       .  A
C1567      H1571   1.085       .  S
C1568      C1572   1.480       .  S
C1568      C1569   1.405       .  A
C1569      C1570   1.396       .  A
C1569     Br1581   1.920       .  S
C1570      H1573   1.084       .  S
C1572      C1574   1.403       .  A
C1572      C1578   1.407       .  A
C1574      C1575   1.401       .  A
C1574      H1579   1.084       .  S
C1575      C1576   1.413       .  A
C1575     Br1583   1.920       .  S
C1576      C1577   1.407       .  A
C1577      C1578   1.396       .  A
C1577      H1580   1.084       .  S
C1578     Br1584   1.921       .  S
C1585      C1586   1.415       .  A
C1585      C1590   1.407       .  A
C1586      C1587   1.401       .  A
C1586     Br1602   1.921       .  S
C1587      C1588   1.401       .  A
C1587      H1591   1.081       .  S
C1588      C1592   1.477       .  S
C1588      C1589   1.406       .  A
C1589      C1590   1.397       .  A
C1589     Br1601   1.920       .  S
C1590      H1593   1.081       .  S
C1592      C1594   1.401       .  A
C1592      C1598   1.408       .  A
C1594      C1595   1.399       .  A
C1594      H1599   1.096       .  S
C1595      C1596   1.413       .  A
C1595     Br1603   1.922       .  S
C1596      C1597   1.403       .  A
C1597      C1598   1.397       .  A
C1597      H1600   1.097       .  S
C1598     Br1604   1.919       .  S
C1605      C1606   1.418       .  A
C1605      C1610   1.409       .  A
C1606      C1607   1.398       .  A
C1606     Br1622   1.919       .  S
C1607      C1608   1.399       .  A
C1607      H1611   1.085       .  S
C1608      C1612   1.473       .  S
C1608      C1609   1.404       .  A
C1609      C1610   1.396       .  A
C1609     Br1621   1.919       .  S
C1610      H1613   1.084       .  S
C1612      C1614   1.400       .  A
C1612      C1618   1.407       .  A
C1614      C1615   1.396       .  A
C1614      H1619   1.084       .  S
C1615      C1616   1.411       .  A
C1615     Br1623   1.919       .  S
C1616      C1617   1.403       .  A
C1617      C1618   1.399       .  A
C1617      H1620   1.084       .  S
C1618     Br1624   1.918       .  S
C1625      C1626   1.411       .  A
C1625      C1630   1.407       .  A
C1626      C1627   1.400       .  A
C1626     Br1642   1.918       .  S
C1627      C1628   1.403       .  A
C1627      H1631   1.084       .  S
C1628      C1632   1.487       .  S
C1628      C1629   1.410       .  A
C1629      C1630   1.403       .  A
C1629     Br1641   1.919       .  S
C1630      H1633   1.084       .  S
C1632      C1634   1.403       .  A
C1632      C1638   1.408       .  A
C1634      C1635   1.403       .  A
C1634      H1639   1.084       .  S
C1635      C1636   1.419       .  A
C1635     Br1643   1.923       .  S
C1636      C1637   1.406       .  A
C1637      C1638   1.399       .  A
C1637      H1640   1.084       .  S
C1638     Br1644   1.919       .  S
C1645      C1646   1.415       .  A
C1645      C1650   1.408       .  A
C1646      C1647   1.400       .  A
C1646     Br1662   1.921       .  S
C1647      C1648   1.401       .  A
C1647      H1651   1.083       .  S
C1648      C1652   1.481       .  S
C1648      C1649   1.406       .  A
C1649      C1650   1.401       .  A
C1649     Br1661   1.918       .  S
C1650      H1653   1.082       .  S
C1652      C1654   1.404       .  A
C1652      C1658   1.408       .  A
C1654      C1655   1.402       .  A
C1654      H1659   1.083       .  S
C1655      C1656   1.411       .  A
C1655     Br1663   1.920       .  S
C1656      C1657   1.403       .  A
C1657      C1658   1.399       .  A
C1657      H1660   1.084       .  S
C1658     Br1664   1.919       .  S
C1665      C1666   1.413       .  A
C1665      C1670   1.405       .  A
C1666      C1667   1.397       .  A
C1666     Br1682   1.920       .  S
C1667      C1668   1.400       .  A
C1667      H1671   1.081       .  S
C1668      C1672   1.477       .  S
C1668      C1669   1.407       .  A
C1669      C1670   1.401       .  A
C1669     Br1681   1.918       .  S
C1670      H1673   1.081       .  S
C1672      C1674   1.398       .  A
C1672      C1678   1.408       .  A
C1674      C1675   1.397       .  A
C1674      H1679   1.098       .  S
C1675      C1676   1.416       .  A
C1675     Br1683   1.921       .  S
C1676      C1677   1.406       .  A
C1677      C1678   1.400       .  A
C1677      H1680   1.097       .  S
C1678     Br1684   1.919       .  S
C1685      C1686   1.410       .  A
C1685      C1690   1.405       .  A
C1686      C1687   1.394       .  A
C1686     Br1702   1.915       .  S
C1687      C1688   1.401       .  A
C1687      H1691   1.083       .  S
C1688      C1692   1.477       .  S
C1688      C1689   1.409       .  A
C1689      C1690   1.400       .  A
C1689     Br1701   1.919       .  S
C1690      H1693   1.083       .  S
C1692      C1694   1.402       .  A
C1692      C1698   1.407       .  A
C1694      C1695   1.398       .  A
C1694      H1699   1.083       .  S
C1695      C1696   1.416       .  A
C1695     Br1703   1.922       .  S
C1696      C1697   1.407       .  A
C1697      C1698   1.396       .  A
C1697      H1700   1.082       .  S
C1698     Br1704   1.921       .  S
C1705      C1706   1.415       .  A
C1705      C1710   1.407       .  A
C1706      C1707   1.405       .  A
C1706     Br1722   1.920       .  S
C1707      C1708   1.403       .  A
C1707      H1711   1.083       .  S
C1708      C1712   1.483       .  S
C1708      C1709   1.406       .  A
C1709      C1710   1.400       .  A
C1709     Br1721   1.919       .  S
C1710      H1713   1.083       .  S
C1712      C1714   1.402       .  A
C1712      C1718   1.405       .  A
C1714      C1715   1.403       .  A
C1714      H1719   1.083       .  S
C1715      C1716   1.417       .  A
C1715     Br1723   1.921       .  S
C1716      C1717   1.411       .  A
C1717      C1718   1.400       .  A
C1717      H1720   1.083       .  S
C1718     Br1724   1.919       .  S
C1725      C1726   1.422       .  A
C1725      C1730   1.409       .  A
C1726      C1727   1.400       .  A
C1726     Br1742   1.924       .  S
C1727      C1728   1.399       .  A
C1727      H1731   1.084       .  S
C1728      C1732   1.475       .  S
C1728      C1729   1.403       .  A
C1729      C1730   1.397       .  A
C1729     Br1741   1.918       .  S
C1730      H1733   1.083       .  S
C1732      C1734   1.400       .  A
C1732      C1738   1.407       .  A
C1734      C1735   1.396       .  A
C1734      H1739   1.084       .  S
C1735      C1736   1.413       .  A
C1735     Br1743   1.922       .  S
C1736      C1737   1.405       .  A
C1737      C1738   1.400       .  A
C1737      H1740   1.083       .  S
C1738     Br1744   1.918       .  S
C1745      C1746   1.412       .  A
C1745      C1750   1.406       .  A
C1746      C1747   1.394       .  A
C1746     Br1762   1.922       .  S
C1747      C1748   1.400       .  A
C1747      H1751   1.084       .  S
C1748      C1752   1.474       .  S
C1748      C1749   1.407       .  A
C1749      C1750   1.399       .  A
C1749     Br1761   1.918       .  S
C1750      H1753   1.084       .  S
C1752      C1754   1.399       .  A
C1752      C1758   1.404       .  A
C1754      C1755   1.398       .  A
C1754      H1759   1.083       .  S
C1755      C1756   1.420       .  A
C1755     Br1763   1.923       .  S
C1756      C1757   1.409       .  A
C1757      C1758   1.396       .  A
C1757      H1760   1.082       .  S
C1758     Br1764   1.919       .  S
C1765      C1766   1.419       .  A
C1765      C1770   1.410       .  A
C1766      C1767   1.400       .  A
C1766     Br1782   1.923       .  S
C1767      C1768   1.401       .  A
C1767      H1771   1.085       .  S
C1768      C1772   1.476   1_556  S
C1768      C1769   1.403       .  A
C1769      C1770   1.396       .  A
C1769     Br1781   1.919       .  S
C1770      H1773   1.085       .  S
C1772      C1774   1.404       .  A
C1772      C1778   1.405       .  A
C1774      C1775   1.404       .  A
C1774      H1779   1.083       .  S
C1775      C1776   1.413       .  A
C1775     Br1783   1.920       .  S
C1776      C1777   1.404       .  A
C1777      C1778   1.392       .  A
C1777      H1780   1.084       .  S
C1778     Br1784   1.920       .  S
C1785      C1786   1.413       .  A
C1785      C1790   1.406       .  A
C1786      C1787   1.399       .  A
C1786     Br1802   1.919       .  S
C1787      C1788   1.403       .  A
C1787      H1791   1.084       .  S
C1788      C1792   1.484       .  S
C1788      C1789   1.409       .  A
C1789      C1790   1.400       .  A
C1789     Br1801   1.919       .  S
C1790      H1793   1.084       .  S
C1792      C1794   1.402       .  A
C1792      C1798   1.407       .  A
C1794      C1795   1.402       .  A
C1794      H1799   1.085       .  S
C1795      C1796   1.419       .  A
C1795     Br1803   1.922       .  S
C1796      C1797   1.408       .  A
C1797      C1798   1.397       .  A
C1797      H1800   1.084       .  S
C1798     Br1804   1.920       .  S
C1805      C1806   1.414       .  A
C1805      C1810   1.405       .  A
C1806      C1807   1.396       .  A
C1806     Br1822   1.921       .  S
C1807      C1808   1.400       .  A
C1807      H1811   1.084       .  S
C1808      C1812   1.476   1_565  S
C1808      C1809   1.407       .  A
C1809      C1810   1.400       .  A
C1809     Br1821   1.918       .  S
C1810      H1813   1.083       .  S
C1812      C1814   1.399       .  A
C1812      C1818   1.407       .  A
C1814      C1815   1.395       .  A
C1814      H1819   1.085       .  S
C1815      C1816   1.414       .  A
C1815     Br1823   1.921       .  S
C1816      C1817   1.405       .  A
C1817      C1818   1.401       .  A
C1817      H1820   1.084       .  S
C1818     Br1824   1.918       .  S
C1825      C1826   1.417       .  A
C1825      C1830   1.408       .  A
C1826      C1827   1.402       .  A
C1826     Br1842   1.921       .  S
C1827      C1828   1.401       .  A
C1827      H1831   1.083       .  S
C1828      C1832   1.483   1_554  S
C1828      C1829   1.406       .  A
C1829      C1830   1.402       .  A
C1829     Br1841   1.918       .  S
C1830      H1833   1.082       .  S
C1832      C1834   1.404       .  A
C1832      C1838   1.408       .  A
C1834      C1835   1.404       .  A
C1834      H1839   1.082       .  S
C1835      C1836   1.410       .  A
C1835     Br1843   1.920       .  S
C1836      C1837   1.403       .  A
C1837      C1838   1.400       .  A
C1837      H1840   1.083       .  S
C1838     Br1844   1.918       .  S
C1845      C1846   1.408       .  A
C1845      C1850   1.404       .  A
C1846      C1847   1.399       .  A
C1846     Br1862   1.919       .  S
C1847      C1848   1.404       .  A
C1847      H1851   1.083       .  S
C1848      C1852   1.476       .  S
C1848      C1849   1.407       .  A
C1849      C1850   1.396       .  A
C1849     Br1861   1.920       .  S
C1850      H1853   1.084       .  S
C1852      C1854   1.401       .  A
C1852      C1858   1.405       .  A
C1854      C1855   1.399       .  A
C1854      H1859   1.084       .  S
C1855      C1856   1.417       .  A
C1855     Br1863   1.923       .  S
C1856      C1857   1.407       .  A
C1857      C1858   1.395       .  A
C1857      H1860   1.083       .  S
C1858     Br1864   1.919       .  S
C1865      C1866   1.410       .  A
C1865      C1870   1.401       .  A
C1866      C1867   1.398       .  A
C1866     Br1882   1.921       .  S
C1867      C1868   1.401       .  A
C1867      H1871   1.083       .  S
C1868      C1872   1.470       .  S
C1868      C1869   1.406       .  A
C1869      C1870   1.396       .  A
C1869     Br1881   1.919       .  S
C1870      H1873   1.083       .  S
C1872      C1874   1.400       .  A
C1872      C1878   1.404       .  A
C1874      C1875   1.398       .  A
C1874      H1879   1.083       .  S
C1875      C1876   1.416       .  A
C1875     Br1883   1.922       .  S
C1876      C1877   1.406       .  A
C1877      C1878   1.394       .  A
C1877      H1880   1.083       .  S
C1878     Br1884   1.919       .  S
C1885      C1886   1.409       .  A
C1885      C1890   1.401       .  A
C1886      C1887   1.405       .  A
C1886     Br1902   1.919       .  S
C1887      C1888   1.405       .  A
C1887      H1891   1.083       .  S
C1888      C1892   1.479       .  S
C1888      C1889   1.408       .  A
C1889      C1890   1.396       .  A
C1889     Br1901   1.919       .  S
C1890      H1893   1.084       .  S
C1892      C1894   1.403       .  A
C1892      C1898   1.405       .  A
C1894      C1895   1.405       .  A
C1894      H1899   1.083       .  S
C1895      C1896   1.415       .  A
C1895     Br1903   1.920       .  S
C1896      C1897   1.406       .  A
C1897      C1898   1.397       .  A
C1897      H1900   1.083       .  S
C1898     Br1904   1.919       .  S
C1905      C1906   1.412       .  A
C1905      C1910   1.405       .  A
C1906      C1907   1.404       .  A
C1906     Br1922   1.919       .  S
C1907      C1908   1.405       .  A
C1907      H1911   1.083       .  S
C1908      C1912   1.487   1_565  S
C1908      C1909   1.410       .  A
C1909      C1910   1.400       .  A
C1909     Br1921   1.920       .  S
C1910      H1913   1.084       .  S
C1912      C1914   1.402       .  A
C1912      C1918   1.408       .  A
C1914      C1915   1.403       .  A
C1914      H1919   1.084       .  S
C1915      C1916   1.420       .  A
C1915     Br1923   1.922       .  S
C1916      C1917   1.410       .  A
C1917      C1918   1.401       .  A
C1917      H1920   1.083       .  S
C1918     Br1924   1.919       .  S
C1925      C1926   1.414       .  A
C1925      C1930   1.406       .  A
C1926      C1927   1.405       .  A
C1926     Br1942   1.920       .  S
C1927      C1928   1.405       .  A
C1927      H1931   1.084       .  S
C1928      C1932   1.487       .  S
C1928      C1929   1.409       .  A
C1929      C1930   1.399       .  A
C1929     Br1941   1.920       .  S
C1930      H1933   1.084       .  S
C1932      C1934   1.402       .  A
C1932      C1938   1.410       .  A
C1934      C1935   1.402       .  A
C1934      H1939   1.084       .  S
C1935      C1936   1.415       .  A
C1935     Br1943   1.920       .  S
C1936      C1937   1.406       .  A
C1937      C1938   1.401       .  A
C1937      H1940   1.084       .  S
C1938     Br1944   1.919       .  S
C1945      C1946   1.406       .  A
C1945      C1950   1.402       .  A
C1946      C1947   1.400       .  A
C1946     Br1962   1.919       .  S
C1947      C1948   1.404       .  A
C1947      H1951   1.084       .  S
C1948      C1952   1.482       .  S
C1948      C1949   1.410       .  A
C1949      C1950   1.401       .  A
C1949     Br1961   1.919       .  S
C1950      H1953   1.084       .  S
C1952      C1954   1.398       .  A
C1952      C1958   1.407       .  A
C1954      C1955   1.399       .  A
C1954      H1959   1.085       .  S
C1955      C1956   1.422       .  A
C1955     Br1963   1.923       .  S
C1956      C1957   1.410       .  A
C1957      C1958   1.402       .  A
C1957      H1960   1.084       .  S
C1958     Br1964   1.919       .  S
C1965      C1966   1.414       .  A
C1965      C1970   1.406       .  A
C1966      C1967   1.401       .  A
C1966     Br1982   1.920       .  S
C1967      C1968   1.402       .  A
C1967      H1971   1.083       .  S
C1968      C1972   1.482       .  S
C1968      C1969   1.407       .  A
C1969      C1970   1.400       .  A
C1969     Br1981   1.918       .  S
C1970      H1973   1.083       .  S
C1972      C1974   1.401       .  A
C1972      C1978   1.407       .  A
C1974      C1975   1.402       .  A
C1974      H1979   1.085       .  S
C1975      C1976   1.417       .  A
C1975     Br1983   1.920       .  S
C1976      C1977   1.409       .  A
C1977      C1978   1.400       .  A
C1977      H1980   1.085       .  S
C1978     Br1984   1.920       .  S
C1985      C1986   1.418       .  A
C1985      C1990   1.409       .  A
C1986      C1987   1.399       .  A
C1986     Br2002   1.922       .  S
C1987      C1988   1.399       .  A
C1987      H1991   1.083       .  S
C1988      C1992   1.476       .  S
C1988      C1989   1.405       .  A
C1989      C1990   1.400       .  A
C1989     Br2001   1.918       .  S
C1990      H1993   1.083       .  S
C1992      C1994   1.401       .  A
C1992      C1998   1.405       .  A
C1994      C1995   1.402       .  A
C1994      H1999   1.084       .  S
C1995      C1996   1.416       .  A
C1995     Br2003   1.921       .  S
C1996      C1997   1.407       .  A
C1997      C1998   1.397       .  A
C1997      H2000   1.084       .  S
C1998     Br2004   1.919       .  S
C2005      C2006   1.413       .  A
C2005      C2010   1.408       .  A
C2006      C2007   1.401       .  A
C2006     Br2022   1.921       .  S
C2007      C2008   1.403       .  A
C2007      H2011   1.083       .  S
C2008      C2012   1.483       .  S
C2008      C2009   1.407       .  A
C2009      C2010   1.400       .  A
C2009     Br2021   1.920       .  S
C2010      H2013   1.083       .  S
C2012      C2014   1.404       .  A
C2012      C2018   1.408       .  A
C2014      C2015   1.403       .  A
C2014      H2019   1.083       .  S
C2015      C2016   1.412       .  A
C2015     Br2023   1.920       .  S
C2016      C2017   1.404       .  A
C2017      C2018   1.398       .  A
C2017      H2020   1.083       .  S
C2018     Br2024   1.919       .  S
C2025      C2026   1.413       .  A
C2025      C2030   1.406       .  A
C2026      C2027   1.405       .  A
C2026     Br2042   1.920       .  S
C2027      C2028   1.403       .  A
C2027      H2031   1.084       .  S
C2028      C2032   1.485       .  S
C2028      C2029   1.408       .  A
C2029      C2030   1.401       .  A
C2029     Br2041   1.919       .  S
C2030      H2033   1.084       .  S
C2032      C2034   1.403       .  A
C2032      C2038   1.407       .  A
C2034      C2035   1.407       .  A
C2034      H2039   1.083       .  S
C2035      C2036   1.418       .  A
C2035     Br2043   1.922       .  S
C2036      C2037   1.406       .  A
C2037      C2038   1.399       .  A
C2037      H2040   1.083       .  S
C2038     Br2044   1.919       .  S
C2045      C2046   1.419       .  A
C2045      C2050   1.410       .  A
C2046      C2047   1.400       .  A
C2046     Br2062   1.922       .  S
C2047      C2048   1.402       .  A
C2047      H2051   1.084       .  S
C2048      C2052   1.483   1_556  S
C2048      C2049   1.407       .  A
C2049      C2050   1.398       .  A
C2049     Br2061   1.920       .  S
C2050      H2053   1.083       .  S
C2052      C2054   1.401       .  A
C2052      C2058   1.408       .  A
C2054      C2055   1.398       .  A
C2054      H2059   1.084       .  S
C2055      C2056   1.418       .  A
C2055     Br2063   1.923       .  S
C2056      C2057   1.407       .  A
C2057      C2058   1.400       .  A
C2057      H2060   1.082       .  S
C2058     Br2064   1.919       .  S
C2065      C2066   1.419       .  A
C2065      C2070   1.407       .  A
C2066      C2067   1.397       .  A
C2066     Br2082   1.922       .  S
C2067      C2068   1.397       .  A
C2067      H2071   1.085       .  S
C2068      C2072   1.471       .  S
C2068      C2069   1.404       .  A
C2069      C2070   1.397       .  A
C2069     Br2081   1.918       .  S
C2070      H2073   1.084       .  S
C2072      C2074   1.399       .  A
C2072      C2078   1.403       .  A
C2074      C2075   1.399       .  A
C2074      H2079   1.083       .  S
C2075      C2076   1.418       .  A
C2075     Br2083   1.923       .  S
C2076      C2077   1.408       .  A
C2077      C2078   1.396       .  A
C2077      H2080   1.083       .  S
C2078     Br2084   1.918       .  S
C2085      C2086   1.415       .  A
C2085      C2090   1.407       .  A
C2086      C2087   1.397       .  A
C2086     Br2102   1.922       .  S
C2087      C2088   1.401       .  A
C2087      H2091   1.083       .  S
C2088      C2092   1.481   1_655  S
C2088      C2089   1.407       .  A
C2089      C2090   1.401       .  A
C2089     Br2101   1.918       .  S
C2090      H2093   1.083       .  S
C2092      C2094   1.401       .  A
C2092      C2098   1.405       .  A
C2094      C2095   1.401       .  A
C2094      H2099   1.084       .  S
C2095      C2096   1.421       .  A
C2095     Br2103   1.923       .  S
C2096      C2097   1.409       .  A
C2097      C2098   1.397       .  A
C2097      H2100   1.083       .  S
C2098     Br2104   1.919       .  S
C2105      C2106   1.418       .  A
C2105      C2110   1.409       .  A
C2106      C2107   1.400       .  A
C2106     Br2122   1.922       .  S
C2107      C2108   1.401       .  A
C2107      H2111   1.084       .  S
C2108      C2112   1.473   1_556  S
C2108      C2109   1.403       .  A
C2109      C2110   1.394       .  A
C2109     Br2121   1.920       .  S
C2110      H2113   1.084       .  S
C2112      C2114   1.404       .  A
C2112      C2118   1.406       .  A
C2114      C2115   1.400       .  A
C2114      H2119   1.084       .  S
C2115      C2116   1.408       .  A
C2115     Br2123   1.919       .  S
C2116      C2117   1.402       .  A
C2117      C2118   1.394       .  A
C2117      H2120   1.084       .  S
C2118     Br2124   1.920       .  S
C2125      C2126   1.420       .  A
C2125      C2130   1.407       .  A
C2126      C2127   1.400       .  A
C2126     Br2142   1.923       .  S
C2127      C2128   1.398       .  A
C2127      H2131   1.084       .  S
C2128      C2132   1.474       .  S
C2128      C2129   1.405       .  A
C2129      C2130   1.397       .  A
C2129     Br2141   1.918       .  S
C2130      H2133   1.084       .  S
C2132      C2134   1.400       .  A
C2132      C2138   1.405       .  A
C2134      C2135   1.399       .  A
C2134      H2139   1.083       .  S
C2135      C2136   1.415       .  A
C2135     Br2143   1.921       .  S
C2136      C2137   1.408       .  A
C2137      C2138   1.397       .  A
C2137      H2140   1.083       .  S
C2138     Br2144   1.919       .  S
C2145      C2146   1.416       .  A
C2145      C2150   1.406       .  A
C2146      C2147   1.401       .  A
C2146     Br2162   1.922       .  S
C2147      C2148   1.401       .  A
C2147      H2151   1.084       .  S
C2148      C2152   1.482       .  S
C2148      C2149   1.408       .  A
C2149      C2150   1.402       .  A
C2149     Br2161   1.918       .  S
C2150      H2153   1.084       .  S
C2152      C2154   1.400       .  A
C2152      C2158   1.407       .  A
C2154      C2155   1.401       .  A
C2154      H2159   1.083       .  S
C2155      C2156   1.416       .  A
C2155     Br2163   1.921       .  S
C2156      C2157   1.408       .  A
C2157      C2158   1.403       .  A
C2157      H2160   1.083       .  S
C2158     Br2164   1.919       .  S
C2165      C2166   1.416       .  A
C2165      C2170   1.407       .  A
C2166      C2167   1.404       .  A
C2166     Br2182   1.920       .  S
C2167      C2168   1.403       .  A
C2167      H2171   1.083       .  S
C2168      C2172   1.482       .  S
C2168      C2169   1.406       .  A
C2169      C2170   1.398       .  A
C2169     Br2181   1.919       .  S
C2170      H2173   1.083       .  S
C2172      C2174   1.402       .  A
C2172      C2178   1.405       .  A
C2174      C2175   1.404       .  A
C2174      H2179   1.083       .  S
C2175      C2176   1.419       .  A
C2175     Br2183   1.922       .  S
C2176      C2177   1.409       .  A
C2177      C2178   1.398       .  A
C2177      H2180   1.083       .  S
C2178     Br2184   1.919       .  S
C2185      C2186   1.415       .  A
C2185      C2190   1.407       .  A
C2186      C2187   1.399       .  A
C2186     Br2202   1.921       .  S
C2187      C2188   1.400       .  A
C2187      H2191   1.085       .  S
C2188      C2192   1.470   1_655  S
C2188      C2189   1.403       .  A
C2189      C2190   1.395       .  A
C2189     Br2201   1.919       .  S
C2190      H2193   1.084       .  S
C2192      C2194   1.401       .  A
C2192      C2198   1.407       .  A
C2194      C2195   1.398       .  A
C2194      H2199   1.083       .  S
C2195      C2196   1.408       .  A
C2195     Br2203   1.919       .  S
C2196      C2197   1.403       .  A
C2197      C2198   1.396       .  A
C2197      H2200   1.084       .  S
C2198     Br2204   1.920       .  S
C2205      C2206   1.416       .  A
C2205      C2210   1.405       .  A
C2206      C2207   1.399       .  A
C2206     Br2222   1.922       .  S
C2207      C2208   1.401       .  A
C2207      H2211   1.085       .  S
C2208      C2212   1.470       .  S
C2208      C2209   1.404       .  A
C2209      C2210   1.393       .  A
C2209     Br2221   1.919       .  S
C2210      H2213   1.085       .  S
C2212      C2214   1.398       .  A
C2212      C2218   1.405       .  A
C2214      C2215   1.395       .  A
C2214      H2219   1.084       .  S
C2215      C2216   1.415       .  A
C2215     Br2223   1.921       .  S
C2216      C2217   1.406       .  A
C2217      C2218   1.397       .  A
C2217      H2220   1.084       .  S
C2218     Br2224   1.919       .  S
C2225      C2226   1.418       .  A
C2225      C2230   1.409       .  A
C2226      C2227   1.401       .  A
C2226     Br2242   1.921       .  S
C2227      C2228   1.400       .  A
C2227      H2231   1.083       .  S
C2228      C2232   1.480       .  S
C2228      C2229   1.405       .  A
C2229      C2230   1.401       .  A
C2229     Br2241   1.918       .  S
C2230      H2233   1.083       .  S
C2232      C2234   1.402       .  A
C2232      C2238   1.405       .  A
C2234      C2235   1.402       .  A
C2234      H2239   1.083       .  S
C2235      C2236   1.417       .  A
C2235     Br2243   1.922       .  S
C2236      C2237   1.408       .  A
C2237      C2238   1.400       .  A
C2237      H2240   1.083       .  S
C2238     Br2244   1.917       .  S
C2245      C2246   1.413       .  A
C2245      C2250   1.405       .  A
C2246      C2247   1.396       .  A
C2246     Br2262   1.922       .  S
C2247      C2248   1.399       .  A
C2247      H2251   1.085       .  S
C2248      C2252   1.470       .  S
C2248      C2249   1.406       .  A
C2249      C2250   1.397       .  A
C2249     Br2261   1.919       .  S
C2250      H2253   1.085       .  S
C2252      C2254   1.399       .  A
C2252      C2258   1.406       .  A
C2254      C2255   1.396       .  A
C2254      H2259   1.084       .  S
C2255      C2256   1.412       .  A
C2255     Br2263   1.921       .  S
C2256      C2257   1.406       .  A
C2257      C2258   1.397       .  A
C2257      H2260   1.085       .  S
C2258     Br2264   1.919       .  S
C2265      C2266   1.421       .  A
C2265      C2270   1.410       .  A
C2266      C2267   1.400       .  A
C2266     Br2282   1.922       .  S
C2267      C2268   1.399       .  A
C2267      H2271   1.084       .  S
C2268      C2272   1.482       .  S
C2268      C2269   1.406       .  A
C2269      C2270   1.402       .  A
C2269     Br2281   1.918       .  S
C2270      H2273   1.083       .  S
C2272      C2274   1.402       .  A
C2272      C2278   1.409       .  A
C2274      C2275   1.399       .  A
C2274      H2279   1.083       .  S
C2275      C2276   1.411       .  A
C2275     Br2283   1.922       .  S
C2276      C2277   1.404       .  A
C2277      C2278   1.401       .  A
C2277      H2280   1.083       .  S
C2278     Br2284   1.917       .  S
C2285      C2286   1.414       .  A
C2285      C2290   1.406       .  A
C2286      C2287   1.394       .  A
C2286     Br2302   1.923       .  S
C2287      C2288   1.400       .  A
C2287      H2291   1.083       .  S
C2288      C2292   1.476       .  S
C2288      C2289   1.407       .  A
C2289      C2290   1.400       .  A
C2289     Br2301   1.918       .  S
C2290      H2293   1.083       .  S
C2292      C2294   1.400       .  A
C2292      C2298   1.405       .  A
C2294      C2295   1.397       .  A
C2294      H2299   1.084       .  S
C2295      C2296   1.419       .  A
C2295     Br2303   1.923       .  S
C2296      C2297   1.409       .  A
C2297      C2298   1.395       .  A
C2297      H2300   1.083       .  S
C2298     Br2304   1.920       .  S
C2305      C2306   1.420       .  A
C2305      C2310   1.409       .  A
C2306      C2307   1.403       .  A
C2306     Br2322   1.923       .  S
C2307      C2308   1.401       .  A
C2307      H2311   1.084       .  S
C2308      C2312   1.478       .  S
C2308      C2309   1.404       .  A
C2309      C2310   1.397       .  A
C2309     Br2321   1.919       .  S
C2310      H2313   1.084       .  S
C2312      C2314   1.403       .  A
C2312      C2318   1.407       .  A
C2314      C2315   1.403       .  A
C2314      H2319   1.084       .  S
C2315      C2316   1.411       .  A
C2315     Br2323   1.920       .  S
C2316      C2317   1.403       .  A
C2317      C2318   1.396       .  A
C2317      H2320   1.084       .  S
C2318     Br2324   1.919       .  S
C2325      C2326   1.418       .  A
C2325      C2330   1.405       .  A
C2326      C2327   1.399       .  A
C2326     Br2342   1.923       .  S
C2327      C2328   1.401       .  A
C2327      H2331   1.084       .  S
C2328      C2332   1.484       .  S
C2328      C2329   1.410       .  A
C2329      C2330   1.399       .  A
C2329     Br2341   1.919       .  S
C2330      H2333   1.084       .  S
C2332      C2334   1.403       .  A
C2332      C2338   1.411       .  A
C2334      C2335   1.396       .  A
C2334      H2339   1.085       .  S
C2335      C2336   1.412       .  A
C2335     Br2343   1.922       .  S
C2336      C2337   1.405       .  A
C2337      C2338   1.402       .  A
C2337      H2340   1.085       .  S
C2338     Br2344   1.919       .  S
C2345      C2346   1.419       .  A
C2345      C2350   1.409       .  A
C2346      C2347   1.400       .  A
C2346     Br2362   1.922       .  S
C2347      C2348   1.402       .  A
C2347      H2351   1.083       .  S
C2348      C2352   1.485   1_655  S
C2348      C2349   1.408       .  A
C2349      C2350   1.399       .  A
C2349     Br2361   1.920       .  S
C2350      H2353   1.083       .  S
C2352      C2354   1.402       .  A
C2352      C2358   1.410       .  A
C2354      C2355   1.397       .  A
C2354      H2359   1.083       .  S
C2355      C2356   1.414       .  A
C2355     Br2363   1.922       .  S
C2356      C2357   1.406       .  A
C2357      C2358   1.402       .  A
C2357      H2360   1.084       .  S
C2358     Br2364   1.919       .  S
C2365      C2366   1.419       .  A
C2365      C2370   1.409       .  A
C2366      C2367   1.403       .  A
C2366     Br2382   1.922       .  S
C2367      C2368   1.403       .  A
C2367      H2371   1.083       .  S
C2368      C2372   1.481   1_556  S
C2368      C2369   1.405       .  A
C2369      C2370   1.395       .  A
C2369     Br2381   1.920       .  S
C2370      H2373   1.083       .  S
C2372      C2374   1.402       .  A
C2372      C2378   1.408       .  A
C2374      C2375   1.401       .  A
C2374      H2379   1.083       .  S
C2375      C2376   1.416       .  A
C2375     Br2383   1.922       .  S
C2376      C2377   1.406       .  A
C2377      C2378   1.398       .  A
C2377      H2380   1.083       .  S
C2378     Br2384   1.920       .  S
C2385      C2386   1.413       .  A
C2385      C2390   1.406       .  A
C2386      C2387   1.399       .  A
C2386     Br2402   1.921       .  S
C2387      C2388   1.401       .  A
C2387      H2391   1.083       .  S
C2388      C2392   1.476       .  S
C2388      C2389   1.405       .  A
C2389      C2390   1.400       .  A
C2389     Br2401   1.917       .  S
C2390      H2393   1.083       .  S
C2392      C2394   1.400       .  A
C2392      C2398   1.403       .  A
C2394      C2395   1.401       .  A
C2394      H2399   1.084       .  S
C2395      C2396   1.420       .  A
C2395     Br2403   1.923       .  S
C2396      C2397   1.410       .  A
C2397      C2398   1.398       .  A
C2397      H2400   1.083       .  S
C2398     Br2404   1.918       .  S
C2405      C2406   1.411       .  A
C2405      C2410   1.406       .  A
C2406      C2407   1.398       .  A
C2406     Br2422   1.917       .  S
C2407      C2408   1.401       .  A
C2407      H2411   1.085       .  S
C2408      C2412   1.475       .  S
C2408      C2409   1.406       .  A
C2409      C2410   1.398       .  A
C2409     Br2421   1.919       .  S
C2410      H2413   1.084       .  S
C2412      C2414   1.403       .  A
C2412      C2418   1.407       .  A
C2414      C2415   1.402       .  A
C2414      H2419   1.085       .  S
C2415      C2416   1.413       .  A
C2415     Br2423   1.921       .  S
C2416      C2417   1.403       .  A
C2417      C2418   1.392       .  A
C2417      H2420   1.085       .  S
C2418     Br2424   1.921       .  S
C2425      C2426   1.418       .  A
C2425      C2430   1.408       .  A
C2426      C2427   1.405       .  A
C2426     Br2442   1.922       .  S
C2427      C2428   1.402       .  A
C2427      H2431   1.084       .  S
C2428      C2432   1.483   1_565  S
C2428      C2429   1.405       .  A
C2429      C2430   1.400       .  A
C2429     Br2441   1.919       .  S
C2430      H2433   1.083       .  S
C2432      C2434   1.403       .  A
C2432      C2438   1.407       .  A
C2434      C2435   1.404       .  A
C2434      H2439   1.083       .  S
C2435      C2436   1.415       .  A
C2435     Br2443   1.921       .  S
C2436      C2437   1.407       .  A
C2437      C2438   1.400       .  A
C2437      H2440   1.084       .  S
C2438     Br2444   1.919       .  S
C2445      C2446   1.415       .  A
C2445      C2450   1.406       .  A
C2446      C2447   1.398       .  A
C2446     Br2462   1.923       .  S
C2447      C2448   1.400       .  A
C2447      H2451   1.086       .  S
C2448      C2452   1.479   1_556  S
C2448      C2449   1.408       .  A
C2449      C2450   1.401       .  A
C2449     Br2461   1.918       .  S
C2450      H2453   1.086       .  S
C2452      C2454   1.400       .  A
C2452      C2458   1.408       .  A
C2454      C2455   1.397       .  A
C2454      H2459   1.083       .  S
C2455      C2456   1.414       .  A
C2455     Br2463   1.922       .  S
C2456      C2457   1.406       .  A
C2457      C2458   1.402       .  A
C2457      H2460   1.083       .  S
C2458     Br2464   1.918       .  S
C2465      C2466   1.420       .  A
C2465      C2470   1.410       .  A
C2466      C2467   1.401       .  A
C2466     Br2482   1.923       .  S
C2467      C2468   1.401       .  A
C2467      H2471   1.084       .  S
C2468      C2472   1.481       .  S
C2468      C2469   1.405       .  A
C2469      C2470   1.399       .  A
C2469     Br2481   1.919       .  S
C2470      H2473   1.083       .  S
C2472      C2474   1.402       .  A
C2472      C2478   1.405       .  A
C2474      C2475   1.402       .  A
C2474      H2479   1.084       .  S
C2475      C2476   1.418       .  A
C2475     Br2483   1.923       .  S
C2476      C2477   1.409       .  A
C2477      C2478   1.398       .  A
C2477      H2480   1.083       .  S
C2478     Br2484   1.918       .  S
C2485      C2486   1.420       .  A
C2485      C2490   1.408       .  A
C2486      C2487   1.401       .  A
C2486     Br2502   1.923       .  S
C2487      C2488   1.402       .  A
C2487      H2491   1.084       .  S
C2488      C2492   1.488       .  S
C2488      C2489   1.410       .  A
C2489      C2490   1.399       .  A
C2489     Br2501   1.920       .  S
C2490      H2493   1.083       .  S
C2492      C2494   1.402       .  A
C2492      C2498   1.411       .  A
C2494      C2495   1.399       .  A
C2494      H2499   1.083       .  S
C2495      C2496   1.417       .  A
C2495     Br2503   1.920       .  S
C2496      C2497   1.407       .  A
C2497      C2498   1.401       .  A
C2497      H2500   1.083       .  S
C2498     Br2504   1.920       .  S
C2505      C2506   1.413       .  A
C2505      C2510   1.405       .  A
C2506      C2507   1.398       .  A
C2506     Br2522   1.921       .  S
C2507      C2508   1.401       .  A
C2507      H2511   1.084       .  S
C2508      C2512   1.483       .  S
C2508      C2509   1.410       .  A
C2509      C2510   1.404       .  A
C2509     Br2521   1.917       .  S
C2510      H2513   1.083       .  S
C2512      C2514   1.399       .  A
C2512      C2518   1.407       .  A
C2514      C2515   1.401       .  A
C2514      H2519   1.084       .  S
C2515      C2516   1.423       .  A
C2515     Br2523   1.923       .  S
C2516      C2517   1.410       .  A
C2517      C2518   1.402       .  A
C2517      H2520   1.083       .  S
C2518     Br2524   1.918       .  S
C2525      C2526   1.415       .  A
C2525      C2530   1.406       .  A
C2526      C2527   1.400       .  A
C2526     Br2542   1.921       .  S
C2527      C2528   1.402       .  A
C2527      H2531   1.084       .  S
C2528      C2532   1.483   1_455  S
C2528      C2529   1.408       .  A
C2529      C2530   1.401       .  A
C2529     Br2541   1.918       .  S
C2530      H2533   1.084       .  S
C2532      C2534   1.402       .  A
C2532      C2538   1.407       .  A
C2534      C2535   1.401       .  A
C2534      H2539   1.084       .  S
C2535      C2536   1.419       .  A
C2535     Br2543   1.923       .  S
C2536      C2537   1.405       .  A
C2537      C2538   1.399       .  A
C2537      H2540   1.083       .  S
C2538     Br2544   1.918       .  S
C2545      C2546   1.410       .  A
C2545      C2550   1.404       .  A
C2546      C2547   1.400       .  A
C2546     Br2562   1.920       .  S
C2547      C2548   1.403       .  A
C2547      H2551   1.083       .  S
C2548      C2552   1.475   1_565  S
C2548      C2549   1.406       .  A
C2549      C2550   1.394       .  A
C2549     Br2561   1.920       .  S
C2550      H2553   1.084       .  S
C2552      C2554   1.400       .  A
C2552      C2558   1.404       .  A
C2554      C2555   1.398       .  A
C2554      H2559   1.083       .  S
C2555      C2556   1.419       .  A
C2555     Br2563   1.924       .  S
C2556      C2557   1.410       .  A
C2557      C2558   1.396       .  A
C2557      H2560   1.083       .  S
C2558     Br2564   1.919       .  S
C2565      C2566   1.420       .  A
C2565      C2570   1.409       .  A
C2566      C2567   1.399       .  A
C2566     Br2582   1.923       .  S
C2567      C2568   1.398       .  A
C2567      H2571   1.084       .  S
C2568      C2572   1.473       .  S
C2568      C2569   1.403       .  A
C2569      C2570   1.397       .  A
C2569     Br2581   1.919       .  S
C2570      H2573   1.083       .  S
C2572      C2574   1.400       .  A
C2572      C2578   1.404       .  A
C2574      C2575   1.400       .  A
C2574      H2579   1.084       .  S
C2575      C2576   1.416       .  A
C2575     Br2583   1.922       .  S
C2576      C2577   1.406       .  A
C2577      C2578   1.396       .  A
C2577      H2580   1.084       .  S
C2578     Br2584   1.919       .  S
C2585      C2586   1.419       .  A
C2585      C2590   1.410       .  A
C2586      C2587   1.395       .  A
C2586     Br2602   1.923       .  S
C2587      C2588   1.398       .  A
C2587      H2591   1.084       .  S
C2588      C2592   1.478       .  S
C2588      C2589   1.407       .  A
C2589      C2590   1.400       .  A
C2589     Br2601   1.920       .  S
C2590      H2593   1.083       .  S
C2592      C2594   1.402       .  A
C2592      C2598   1.408       .  A
C2594      C2595   1.399       .  A
C2594      H2599   1.084       .  S
C2595      C2596   1.414       .  A
C2595     Br2603   1.921       .  S
C2596      C2597   1.405       .  A
C2597      C2598   1.396       .  A
C2597      H2600   1.084       .  S
C2598     Br2604   1.920       .  S
C2605      C2606   1.416       .  A
C2605      C2610   1.407       .  A
C2606      C2607   1.398       .  A
C2606     Br2622   1.923       .  S
C2607      C2608   1.400       .  A
C2607      H2611   1.085       .  S
C2608      C2612   1.472       .  S
C2608      C2609   1.405       .  A
C2609      C2610   1.396       .  A
C2609     Br2621   1.919       .  S
C2610      H2613   1.085       .  S
C2612      C2614   1.400       .  A
C2612      C2618   1.406       .  A
C2614      C2615   1.395       .  A
C2614      H2619   1.084       .  S
C2615      C2616   1.411       .  A
C2615     Br2623   1.920       .  S
C2616      C2617   1.405       .  A
C2617      C2618   1.398       .  A
C2617      H2620   1.084       .  S
C2618     Br2624   1.918       .  S
