geometry optimzed in LAMMPS
_audit_creation_date              2020-11-30 
_audit_creation_method            'lammps2cif' 
_symmetry_space_group_name_H-M    'P1' 
_symmetry_Int_Tables_number       1 
_symmetry_cell_setting            triclinic 
loop_ 
_symmetry_equiv_pos_as_xyz 
  x,y,z 
_cell_length_a                    42.05994941547308 
_cell_length_b                    42.087954696817185 
_cell_length_c                    35.80341191532218 
_cell_angle_alpha                 90.49282473515271 
_cell_angle_beta                  90.97399213243372 
_cell_angle_gamma                 90.07829810245364 
loop_ 
_atom_site_label 
_atom_site_type_symbol 
_atom_site_fract_x 
_atom_site_fract_y 
_atom_site_fract_z 
_atom_site_charge 
O1          O  0.41665549  0.49957219  0.43084451    -0.75530
O2          O  0.40779987  0.04528474  0.46366532    -0.54440
C3          C  0.39959675  0.02371589  0.43955551     0.78200
O4          O  0.49414547  0.42316429  0.57021536    -0.60130
O5          O  0.04078986  0.41668431  0.53900779    -0.53160
C6          C  0.01908435  0.40735030  0.56137068     0.70210
O7          O  0.41528442  0.49472686  0.56659270    -0.74690
O8          O  0.40975137  0.04476772  0.54313372    -0.55250
C9          C  0.39959753  0.02058471  0.56124259     0.76220
O10         O  0.49062271  0.42499350  0.43008988    -0.59830
O11         O  0.03823011  0.41640484  0.45958494    -0.52950
C12         C  0.01497349  0.40775724  0.43771836     0.72810
Zr13       Zr  0.46728217  0.47544304  0.44571770     2.54710
O14         O  0.42606814  0.43483800  0.44195834    -0.80400
O15         O  0.47027646  0.47871773  0.37801228    -0.93820
Zr16       Zr  0.46829358  0.47343773  0.55601184     2.64680
O17         O  0.42826298  0.43171292  0.55978173    -0.98770
O18         O  0.47222668  0.47853575  0.62372691    -0.80830
O19         O  0.44529582  0.49545783  0.50137288    -0.84190
O20         O  0.48951702  0.45254202  0.50019958    -2.18900
O21         O  0.08165379  0.01696031  0.43077316    -0.67580
O22         O  0.09182504  0.47013090  0.45996699    -0.52140
C23         C  0.09924125  0.49269887  0.43747774     0.71190
O24         O  0.01229619  0.09213495  0.56863086    -0.60490
O25         O  0.46230990  0.09760414  0.54366071    -0.52460
C26         C  0.48659435  0.10789164  0.56261885     0.72990
O27         O  0.08267501  0.01362961  0.57482704    -0.71880
O28         O  0.09236006  0.46856482  0.54113481    -0.50560
C29         C  0.09995371  0.48960997  0.56617714     0.74380
O30         O  0.00847034  0.09284092  0.43634248    -0.67210
O31         O  0.46003878  0.09788073  0.46385605    -0.54410
C32         C  0.48287481  0.10810627  0.44362067     0.72540
Zr33       Zr  0.03192662  0.04128334  0.44770039     2.77540
O34         O  0.07243364  0.08260259  0.44494531    -0.97960
O35         O  0.02572278  0.03912680  0.37999519    -0.78780
Zr36       Zr  0.03319409  0.03930892  0.55793597     2.70070
O37         O  0.07615374  0.07772693  0.56563132    -0.80030
O38         O  0.02640179  0.03646650  0.62518807    -0.99110
Zr39       Zr  0.45550256  0.05108418  0.50317432     2.21500
Zr40       Zr  0.04543599  0.46347172  0.49997704     2.11130
O41         O  0.05540308  0.01940144  0.50218367    -2.47800
O42         O  0.01101359  0.06221444  0.50351317    -0.79820
O43         O  0.02259828  0.48582108  0.44442025    -0.72020
O44         O  0.47790544  0.02888074  0.55909573    -2.32970
O45         O  0.47671411  0.03076578  0.44619784    -2.29180
O46         O  0.02376800  0.48387800  0.55687637    -0.73780
H47         H  0.48539616  0.42997893  0.49966956     0.78220
H48         H  0.46853625  0.03819706  0.58106915     0.79310
H49         H  0.07794546  0.02380668  0.50255728     0.81530
H50         H  0.46676906  0.04064014  0.42473355     0.79140
H51         H  0.45569050  0.49422578  0.63035188     0.42180
H52         H  0.03267001  0.01450081  0.63167538     0.41150
H53         H  0.08033059  0.08501584  0.53994931     0.40820
H54         H  0.08962645  0.07554535  0.46218003     0.38760
H55         H  0.03165664  0.01711713  0.37307929     0.41890
H56         H  0.46176024  0.49998449  0.37182843     0.36670
H57         H  0.41855836  0.43292748  0.46790794     0.42790
H58         H  0.43498295  0.41516606  0.54175125     0.39200
H59         H  0.08150284  0.08050661  0.41970199     0.44120
H60         H  0.45377185  0.46371487  0.36863633     0.42850
H61         H  0.43166656  0.42207296  0.58465869     0.42980
H62         H  0.04372023  0.04991100  0.63578133     0.43340
C63         C  0.49356226  0.22759204  0.36861631     0.02890
C64         C  0.50124542  0.25616427  0.38755397    -0.13260
C65         C  0.50653011  0.28412351  0.36764486     0.00390
C66         C  0.50388665  0.28380164  0.32865093    -0.11780
C67         C  0.49625383  0.25571543  0.30950917     0.02880
C68         C  0.49130997  0.22763224  0.32929794    -0.11210
H69         H  0.50184955  0.25710204  0.41780432     0.08480
H70         H  0.50696637  0.30567638  0.31330772     0.06010
H71         H  0.48588415  0.20591310  0.31401050     0.05850
C72         C  0.22030509  0.00366009  0.36363210     0.02890
C73         C  0.24918578  0.00850729  0.38343558    -0.13260
C74         C  0.27710551  0.01637130  0.36417885     0.00390
C75         C  0.27556406  0.01959372  0.32507678    -0.11780
C76         C  0.24725425  0.01399736  0.30531291     0.02880
C77         C  0.21986846  0.00584818  0.32443478    -0.11210
H78         H  0.24980798  0.00648056  0.41357445     0.08480
H79         H  0.29649566  0.02643717  0.30981399     0.06010
H80         H  0.19794519  0.00170218  0.30875811     0.05850
C81         C  0.22299758  0.00191240  0.63975293     0.02890
C82         C  0.25025723  0.00699534  0.61821072    -0.13260
C83         C  0.27929209  0.01622691  0.63533572     0.00390
C84         C  0.28088000  0.02068069  0.67427053    -0.11780
C85         C  0.25416618  0.01508031  0.69595781     0.02880
C86         C  0.22566231  0.00527947  0.67886214    -0.11210
H87         H  0.24885241  0.00466920  0.58808343     0.08480
H88         H  0.30312538  0.02757802  0.68778795     0.06010
H89         H  0.20546517  0.00039132  0.69630762     0.05850
C90         C  0.49092388  0.23095568  0.63387066     0.02890
C91         C  0.50050732  0.25825904  0.61478073    -0.13260
C92         C  0.50412070  0.28754200  0.63366524     0.00390
C93         C  0.49885873  0.28880180  0.67234456    -0.11780
C94         C  0.49009235  0.26148375  0.69164246     0.02880
C95         C  0.48561727  0.23272145  0.67238160    -0.11210
H96         H  0.50521642  0.25652487  0.58518122     0.08480
H97         H  0.50125051  0.31105965  0.68756876     0.06010
H98         H  0.47907113  0.21153551  0.68748178     0.05850
C99         C  0.24886327  0.49125971  0.13182373     0.02890
C100        C  0.25096163  0.49126584  0.17097966    -0.13260
C101        C  0.24436533  0.01891817  0.19141700     0.00390
C102        C  0.23614209  0.04697008  0.17281054    -0.11780
C103        C  0.23440015  0.04755578  0.13355969     0.02880
C104        C  0.24057913  0.01947048  0.11337374    -0.11210
H105        H  0.25675858  0.46952027  0.18560120     0.08480
H106        H  0.23169000  0.06839926  0.18888016     0.06010
H107        H  0.23882623  0.01948409  0.08314681     0.05850
O108        O  0.22804469  0.35083554  0.93092261    -0.75530
O109        O  0.27612660  0.35797434  0.96020426    -0.54440
C110        C  0.25332042  0.36710532  0.93821441     0.78200
O111        O  0.15562554  0.27855891  0.07178580    -0.60130
O112        O  0.14509168  0.23216409  0.04056054    -0.53160
C113        C  0.13787801  0.25447647  0.06381681     0.70210
O114        O  0.22913943  0.35477153  0.06482902    -0.74690
O115        O  0.27847114  0.35841663  0.03942600    -0.55250
C116        C  0.25515792  0.36961562  0.05834112     0.76220
O117        O  0.15124934  0.27767802  0.93132672    -0.59830
O118        O  0.14477822  0.22994187  0.96036051    -0.52950
C119        C  0.13519539  0.25262311  0.93908054     0.72810
Zr120      Zr  0.20343730  0.30039431  0.94498459     2.54710
O121        O  0.16350702  0.34209424  0.94127608    -0.80400
O122        O  0.20592550  0.29563639  0.87728072    -0.93820
Zr123      Zr  0.20574194  0.30257139  0.05526004     2.64680
O124        O  0.16556495  0.34403295  0.05981972    -0.98770
O125        O  0.21263050  0.30089530  0.12288219    -0.80830
O126        O  0.22683330  0.32294434  0.99961385    -0.84190
O127        O  0.18183581  0.28064962  0.00064830    -2.18900
O128        O  0.24249455  0.18284679  0.93111317    -0.67580
O129        O  0.19605188  0.17659815  0.96256777    -0.52140
C130        C  0.21784929  0.16685534  0.94030614     0.71190
O131        O  0.32006573  0.25851488  0.07043813    -0.60490
O132        O  0.32968203  0.30468270  0.03980575    -0.52460
C133        C  0.33752374  0.28258286  0.06295893     0.72990
O134        O  0.24519890  0.18448399  0.07037422    -0.71880
O135        O  0.19640233  0.17862207  0.04199994    -0.50560
C136        C  0.21957841  0.16885315  0.06293456     0.74380
O137        O  0.31795333  0.25670799  0.92955700    -0.67210
O138        O  0.32818095  0.30363949  0.95972284    -0.54410
C139        C  0.33549666  0.28105749  0.93685881     0.72760
Zr140      Zr  0.26733548  0.23370917  0.94535291     2.77540
O141        O  0.30854289  0.19318845  0.94209714    -0.97960
O142        O  0.26177732  0.23686651  0.87769997    -0.78780
Zr143      Zr  0.26886569  0.23543301  0.05606698     2.70070
O144        O  0.30923556  0.19443736  0.06292148    -0.80030
O145        O  0.26416426  0.24147189  0.12342006    -0.99110
Zr146      Zr  0.28228763  0.31112366  0.99983355     2.21500
Zr147      Zr  0.19130038  0.22463132  0.00110331     2.11130
O148        O  0.24672563  0.21283926  0.00096069    -2.47800
O149        O  0.29109023  0.25516512  0.00048568    -0.79820
O150        O  0.21213690  0.24480068  0.94421149    -0.72020
O151        O  0.26076941  0.29108065  0.05653127    -2.32970
O152        O  0.25864920  0.28921276  0.94386860    -2.29180
O153        O  0.21392190  0.24687735  0.05725585    -0.73780
H154        H  0.15937383  0.28530993  0.00084888     0.78220
H155        H  0.27093908  0.30079958  0.07817071     0.79310
H156        H  0.25054917  0.19023879  0.00116538     0.81530
H157        H  0.26807110  0.29828475  0.92195549     0.79140
H158        H  0.22967120  0.31651649  0.12866468     0.42180
H159        H  0.24280193  0.23299593  0.12896831     0.41150
H160        H  0.31308081  0.18704919  0.03705845     0.40820
H161        H  0.30204544  0.17667071  0.95997211     0.38760
H162        H  0.23913033  0.23185690  0.87240714     0.41890
H163        H  0.22646088  0.30548484  0.87074397     0.36670
H164        H  0.16238438  0.35059740  0.96709504     0.42790
H165        H  0.14826513  0.33731076  0.04237485     0.39200
H166        H  0.30562633  0.18315165  0.91715637     0.44120
H167        H  0.18966945  0.31073243  0.86792377     0.42850
H168        H  0.15654916  0.34166487  0.08501451     0.42980
H169        H  0.27910161  0.22558629  0.13391583     0.43340
C170        C  0.45973560  0.27189668  0.13844172     0.02890
C171        C  0.46107743  0.26946296  0.17769218    -0.13260
C172        C  0.48942156  0.26156581  0.19611621     0.00390
C173        C  0.01699928  0.25711850  0.17583391    -0.11780
C174        C  0.01669175  0.26061969  0.13689003     0.02880
C175        C  0.48787279  0.26757393  0.11812123    -0.11210
H176        H  0.44000587  0.27351035  0.19406363     0.08480
H177        H  0.03893343  0.25115303  0.19050795     0.06010
H178        H  0.48743130  0.26959101  0.08798168     0.05850
C179        C  0.25292075  0.49022370  0.86744176     0.02890
C180        C  0.25686056  0.49165976  0.82869911    -0.13260
C181        C  0.25235951  0.02019547  0.80973372     0.00390
C182        C  0.24364733  0.04762759  0.82945426    -0.11780
C183        C  0.23927348  0.04672525  0.86840752     0.02880
C184        C  0.24435023  0.01778456  0.88724069    -0.11210
H185        H  0.26281757  0.47029023  0.81319234     0.08480
H186        H  0.24038412  0.06962382  0.81437609     0.06010
H187        H  0.24024353  0.01623136  0.91695441     0.05850
C188        C  0.45636722  0.27295738  0.86273959     0.02890
C189        C  0.48456026  0.26761219  0.88344398    -0.13260
C190        C  0.01332153  0.26118558  0.86520740     0.00390
C191        C  0.01353907  0.26034999  0.82595362    -0.11780
C192        C  0.48566057  0.26579886  0.80526157     0.02880
C193        C  0.45733443  0.27233240  0.82350743    -0.11210
H194        H  0.48389042  0.26734890  0.91366944     0.08480
H195        H  0.03549114  0.25591385  0.81137710     0.06010
H196        H  0.43593850  0.27671065  0.80704912     0.05850
C197        C  0.23619465  0.11137148  0.94293953    -0.13580
C198        C  0.21672395  0.13417159  0.92576210     0.08560
C199        C  0.20261758  0.12732424  0.89090999    -0.13580
C200        C  0.20880570  0.09833241  0.87290296    -0.13580
C201        C  0.22965243  0.07595483  0.88922114     0.08560
C202        C  0.24255816  0.08254057  0.92495236    -0.13580
H203        H  0.24801637  0.11669764  0.96938345     0.12550
H204        H  0.18812349  0.14497454  0.87687143     0.12550
H205        H  0.19794799  0.09382813  0.84574196     0.12550
H206        H  0.25899235  0.06619850  0.93820479     0.12550
C207        C  0.23329044  0.40554516  0.89067352    -0.13580
C208        C  0.25511260  0.39854894  0.91973831     0.08560
C209        C  0.27678356  0.42227319  0.93151821    -0.13580
C210        C  0.27610617  0.45244062  0.91491806    -0.13580
C211        C  0.25411298  0.45901792  0.88601253     0.08560
C212        C  0.23290879  0.43527889  0.87400585    -0.13580
H213        H  0.21622111  0.38801061  0.88070139     0.12550
H214        H  0.29374930  0.41773076  0.95391598     0.12550
H215        H  0.29278701  0.47052729  0.92439348     0.12550
H216        H  0.21571462  0.43991853  0.85184233     0.12550
C217        C  0.39531257  0.29928195  0.06921767    -0.13580
C218        C  0.36856362  0.28352959  0.08312292     0.08560
C219        C  0.37203597  0.26543731  0.11576494    -0.13580
C220        C  0.40146928  0.26198008  0.13327089    -0.13580
C221        C  0.42850443  0.27698743  0.11927416     0.08560
C222        C  0.42514494  0.29597109  0.08716353    -0.13580
H223        H  0.39338103  0.31321740  0.04399649     0.12550
H224        H  0.35197482  0.25306130  0.12748289     0.12550
H225        H  0.40309717  0.24665369  0.15735746     0.12550
H226        H  0.44552180  0.30808518  0.07588136     0.12550
C227        C  0.10304114  0.27239898  0.11508935    -0.13580
C228        C  0.10687787  0.25380623  0.08268907     0.08560
C229        C  0.08042734  0.23737471  0.06757488    -0.13580
C230        C  0.05064978  0.23987909  0.08455399    -0.13580
C231        C  0.04716559  0.25854662  0.11699428     0.08560
C232        C  0.07364492  0.27478466  0.13189154    -0.13580
H233        H  0.12282290  0.28547274  0.12746932     0.12550
H234        H  0.08260997  0.22323857  0.04233604     0.12550
H235        H  0.03052091  0.22701200  0.07270489     0.12550
H236        H  0.07154821  0.28961067  0.15661443     0.12550
C237        C  0.39277477  0.29848465  0.93152855    -0.13580
C238        C  0.36614074  0.28195726  0.91713491     0.08560
C239        C  0.36941692  0.26355798  0.88446505    -0.13580
C240        C  0.39857525  0.26101233  0.86705088    -0.13580
C241        C  0.42541961  0.27692763  0.88156279     0.08560
C242        C  0.42228603  0.29584692  0.91394385    -0.13580
H243        H  0.39101243  0.31260360  0.95683782     0.12550
H244        H  0.34941993  0.25052374  0.87252570     0.12550
H245        H  0.40024227  0.24583222  0.84258614     0.12550
H246        H  0.44261007  0.30851600  0.92561470     0.12550
C247        C  0.09527486  0.23085042  0.89342593    -0.13580
C248        C  0.10284653  0.25116001  0.92342852     0.08560
C249        C  0.08027515  0.27308373  0.93595290    -0.13580
C250        C  0.05067461  0.27541510  0.91799260    -0.13580
C251        C  0.04332081  0.25611213  0.88681692     0.08560
C252        C  0.06570351  0.23333771  0.87517070    -0.13580
H253        H  0.11264090  0.21402646  0.88325652     0.12550
H254        H  0.08599067  0.28909522  0.95897180     0.12550
H255        H  0.03414731  0.29335624  0.92742219     0.12550
H256        H  0.06055216  0.21783780  0.85153853     0.12550
C257        C  0.24117388  0.11464724  0.06451020    -0.13580
C258        C  0.21879000  0.13646723  0.07769686     0.08560
C259        C  0.20006153  0.12850262  0.10824534    -0.13580
C260        C  0.20450888  0.09924591  0.12611939    -0.13580
C261        C  0.22762149  0.07763398  0.11346866     0.08560
C262        C  0.24544105  0.08549323  0.08202213    -0.13580
H263        H  0.25626614  0.12074573  0.04140244     0.12550
H264        H  0.18310265  0.14537905  0.11919080     0.12550
H265        H  0.19026717  0.09371624  0.15012572     0.12550
H266        H  0.26373655  0.06968413  0.07191247     0.12550
C267        C  0.27858465  0.44064264  0.11797283    -0.13580
C268        C  0.25306606  0.46135130  0.11030400     0.08560
C269        C  0.23028186  0.45259058  0.08303568    -0.13580
C270        C  0.23210475  0.42320346  0.06499073    -0.13580
C271        C  0.25704133  0.40219700  0.07327542     0.08560
C272        C  0.28072476  0.41130489  0.09927085    -0.13580
H273        H  0.29650838  0.44695980  0.13881620     0.12550
H274        H  0.21022154  0.46789431  0.07686534     0.12550
H275        H  0.21345945  0.41640397  0.04523142     0.12550
H276        H  0.29988167  0.39516192  0.10638023     0.12550
C277        C  0.48708132  0.26284523  0.73156280    -0.13510
C278        C  0.48604899  0.26428575  0.76513592    -0.15070
C279        C  0.25572165  0.01885028  0.73600837    -0.13510
C280        C  0.25500948  0.02058240  0.76964878    -0.15070
C281        C  0.24631649  0.01663325  0.26523408    -0.13510
C282        C  0.24553374  0.01820048  0.23161718    -0.15070
C283        C  0.49280677  0.25623725  0.26951349    -0.13510
C284        C  0.49055658  0.25831762  0.23604764    -0.15070
C285        C  0.03514609  0.37016564  0.61186762    -0.13580
C286        C  0.02116366  0.37531878  0.57670211     0.08560
C287        C  0.50380501  0.35090720  0.55903953    -0.13580
C288        C  0.49931090  0.32197573  0.57695158    -0.13580
C289        C  0.51215604  0.31692452  0.61295239     0.08560
C290        C  0.03093241  0.34105893  0.62974821    -0.13580
H291        H  0.04816218  0.38905957  0.62608124     0.12550
H292        H  0.49227994  0.35488119  0.53218120     0.12550
H293        H  0.48432260  0.30426787  0.56336628     0.12550
H294        H  0.04168120  0.33779104  0.65712565     0.12550
C295        C  0.45900587  0.15252200  0.59589857    -0.13580
C296        C  0.48605111  0.14030069  0.57843303     0.08560
C297        C  0.01402929  0.15856932  0.57814921    -0.13580
C298        C  0.01518779  0.18834209  0.59540998    -0.13580
C299        C  0.48859924  0.20017185  0.61396609     0.08560
C300        C  0.46041946  0.18216386  0.61404876    -0.13580
H301        H  0.43728481  0.13870844  0.59664123     0.12550
H302        H  0.03516259  0.14964564  0.56473348     0.12550
H303        H  0.03714743  0.20181918  0.59516807     0.12550
H304        H  0.43963835  0.19103321  0.62820682     0.12550
C305        C  0.48317012  0.33461805  0.38809959    -0.13580
C306        C  0.50964363  0.31474916  0.38735001     0.08560
C307        C  0.03847408  0.32488621  0.40394625    -0.13580
C308        C  0.04076170  0.35518300  0.42067197    -0.13580
C309        C  0.01420332  0.37546754  0.42074080     0.08560
C310        C  0.48533787  0.36448277  0.40462132    -0.13580
H311        H  0.46074891  0.32701452  0.37558026     0.12550
H312        H  0.05916281  0.30961334  0.40342845     0.12550
H313        H  0.06318582  0.36282309  0.43305799     0.12550
H314        H  0.46408590  0.37897651  0.40464874     0.12550
C315        C  0.00658446  0.19148702  0.42202888    -0.13580
C316        C  0.48810933  0.19790561  0.38988814     0.08560
C317        C  0.46522436  0.17534176  0.37787116    -0.13580
C318        C  0.46177873  0.14660060  0.39686267    -0.13580
C319        C  0.48105460  0.14014033  0.42815026     0.08560
C320        C  0.00313376  0.16287119  0.44084454    -0.13580
H321        H  0.02474700  0.20796269  0.43178010     0.12550
H322        H  0.45028387  0.17969269  0.35354047     0.12550
H323        H  0.44510758  0.12893131  0.38625839     0.12550
H324        H  0.01864409  0.15787679  0.46454972     0.12550
C325        C  0.18792498  0.47747640  0.58840685    -0.13580
C326        C  0.19129604  0.99526314  0.62185953     0.08560
C327        C  0.16384734  0.00811608  0.63787640    -0.13580
C328        C  0.13419774  0.00414616  0.62077848    -0.13580
C329        C  0.13086723  0.48776437  0.58657479     0.08560
C330        C  0.15792280  0.47375860  0.57088147    -0.13580
H331        H  0.20846633  0.46685373  0.57548923     0.12550
H332        H  0.16523569  0.02254765  0.66300956     0.12550
H333        H  0.11387358  0.01516790  0.63379546     0.12550
H334        H  0.15612534  0.46118113  0.54441172     0.12550
C335        C  0.35779168  0.04732389  0.59934072    -0.13580
C336        C  0.36744343  0.02175721  0.57686012     0.08560
C337        C  0.34693741  0.99571970  0.57145917    -0.13580
C338        C  0.31756422  0.99478544  0.58900596    -0.13580
C339        C  0.30848176  0.01952357  0.61305485     0.08560
C340        C  0.32865829  0.04602600  0.61773083    -0.13580
H341        H  0.37336778  0.06754228  0.60398561     0.12550
H342        H  0.35395296  0.47579439  0.55411412     0.12550
H343        H  0.30256461  0.47403452  0.58515097     0.12550
H344        H  0.32208622  0.06542875  0.63609188     0.12550
C345        C  0.13437253  0.01410736  0.38855765    -0.13580
C346        C  0.13015450  0.49251921  0.41789258     0.08560
C347        C  0.15621610  0.47381432  0.42940041    -0.13580
C348        C  0.18592065  0.47727194  0.41219599    -0.13580
C349        C  0.18974858  0.99924596  0.38312971     0.08560
C350        C  0.16361103  0.01751311  0.37170343    -0.13580
H351        H  0.11506048  0.02902667  0.37874130     0.12550
H352        H  0.15385438  0.45720460  0.45211718     0.12550
H353        H  0.20576531  0.46278849  0.42140364     0.12550
H354        H  0.16588168  0.03495434  0.34982291     0.12550
C355        C  0.36526734  0.01070309  0.38468097    -0.13580
C356        C  0.36849096  0.02554232  0.41982487     0.08560
C357        C  0.34139639  0.03852166  0.43656835    -0.13580
C358        C  0.31144778  0.03570379  0.41874694    -0.13580
C359        C  0.30833526  0.02010411  0.38387609     0.08560
C360        C  0.33570108  0.00785412  0.36713141    -0.13580
H361        H  0.38567486  0.00048263  0.37097481     0.12550
H362        H  0.34319540  0.04978923  0.46383229     0.12550
H363        H  0.29080577  0.04565040  0.43217711     0.12550
H364        H  0.33422848  0.99524091  0.34066960     0.12550
O365        O  0.41665548  0.99957220  0.43084450    -0.75530
O366        O  0.40779987  0.54528474  0.46366533    -0.54440
C367        C  0.39959676  0.52371588  0.43955552     0.78200
O368        O  0.49414546  0.92316429  0.57021537    -0.60130
O369        O  0.04078985  0.91668431  0.53900778    -0.53160
C370        C  0.01908435  0.90735031  0.56137068     0.70210
O371        O  0.41528441  0.99472686  0.56659270    -0.74690
O372        O  0.40975138  0.54476772  0.54313372    -0.55250
C373        C  0.39959754  0.52058472  0.56124260     0.76220
O374        O  0.49062270  0.92499350  0.43008987    -0.59830
O375        O  0.03823010  0.91640484  0.45958493    -0.52950
C376        C  0.01497347  0.90775724  0.43771835     0.72810
Zr377      Zr  0.46728216  0.97544304  0.44571770     2.54710
O378        O  0.42606813  0.93483800  0.44195834    -0.80400
O379        O  0.47027645  0.97871772  0.37801228    -0.93820
Zr380      Zr  0.46829357  0.97343772  0.55601184     2.64680
O381        O  0.42826297  0.93171291  0.55978171    -0.98770
O382        O  0.47222666  0.97853574  0.62372691    -0.80830
O383        O  0.44529581  0.99545783  0.50137287    -0.84190
O384        O  0.48951701  0.95254201  0.50019957    -2.18900
O385        O  0.08165380  0.51696031  0.43077316    -0.67580
O386        O  0.09182503  0.97013091  0.45996698    -0.52140
C387        C  0.09924125  0.99269888  0.43747774     0.71190
O388        O  0.01229620  0.59213495  0.56863087    -0.60490
O389        O  0.46230991  0.59760414  0.54366071    -0.52460
C390        C  0.48659436  0.60789164  0.56261885     0.72990
O391        O  0.08267501  0.51362961  0.57482706    -0.71880
O392        O  0.09236005  0.96856482  0.54113479    -0.50560
C393        C  0.09995371  0.98960998  0.56617712     0.74380
O394        O  0.00847035  0.59284092  0.43634249    -0.67210
O395        O  0.46003879  0.59788073  0.46385605    -0.54410
C396        C  0.48287482  0.60810627  0.44362068     0.72540
Zr397      Zr  0.03192665  0.54128334  0.44770041     2.77540
O398        O  0.07243367  0.58260259  0.44494539    -0.97960
O399        O  0.02572283  0.53912683  0.37999521    -0.78780
Zr400      Zr  0.03319409  0.53930891  0.55793599     2.70070
O401        O  0.07615374  0.57772692  0.56563138    -0.80030
O402        O  0.02640177  0.53646648  0.62518808    -0.99110
Zr403      Zr  0.45550256  0.55108418  0.50317432     2.21500
Zr404      Zr  0.04543598  0.96347173  0.49997703     2.11130
O405        O  0.05540309  0.51940143  0.50218369    -2.47800
O406        O  0.01101360  0.56221444  0.50351319    -0.79820
O407        O  0.02259826  0.98582108  0.44442024    -0.72020
O408        O  0.47790545  0.52888074  0.55909573    -2.32970
O409        O  0.47671412  0.53076578  0.44619784    -2.29180
O410        O  0.02376799  0.98387801  0.55687636    -0.73780
H411        H  0.48539615  0.92997892  0.49966956     0.78220
H412        H  0.46853626  0.53819707  0.58106915     0.79310
H413        H  0.07794547  0.52380667  0.50255730     0.81530
H414        H  0.46676906  0.54064014  0.42473355     0.79140
H415        H  0.45569048  0.99422578  0.63035187     0.42180
H416        H  0.03267000  0.51450079  0.63167540     0.41150
H417        H  0.08033061  0.58501583  0.53994938     0.40820
H418        H  0.08962647  0.57554533  0.46218011     0.38760
H419        H  0.03165666  0.51711716  0.37307931     0.41890
H420        H  0.46176024  0.99998449  0.37182842     0.36670
H421        H  0.41855835  0.93292749  0.46790794     0.42790
H422        H  0.43498295  0.91516605  0.54175123     0.39200
H423        H  0.08150288  0.58050662  0.41970207     0.44120
H424        H  0.45377183  0.96371488  0.36863633     0.42850
H425        H  0.43166655  0.92207295  0.58465868     0.42980
H426        H  0.04372020  0.54991098  0.63578136     0.43340
C427        C  0.49356226  0.72759204  0.36861631     0.02890
C428        C  0.50124542  0.75616427  0.38755397    -0.13260
C429        C  0.50653010  0.78412351  0.36764485     0.00390
C430        C  0.50388664  0.78380164  0.32865092    -0.11780
C431        C  0.49625382  0.75571543  0.30950917     0.02880
C432        C  0.49130996  0.72763224  0.32929794    -0.11210
H433        H  0.50184956  0.75710204  0.41780431     0.08480
H434        H  0.50696636  0.80567638  0.31330771     0.06010
H435        H  0.48588414  0.70591310  0.31401050     0.05850
C436        C  0.22030509  0.50366009  0.36363209     0.02890
C437        C  0.24918577  0.50850730  0.38343557    -0.13260
C438        C  0.27710551  0.51637131  0.36417886     0.00390
C439        C  0.27556407  0.51959372  0.32507679    -0.11780
C440        C  0.24725426  0.51399736  0.30531290     0.02880
C441        C  0.21986847  0.50584817  0.32443477    -0.11210
H442        H  0.24980797  0.50648058  0.41357445     0.08480
H443        H  0.29649567  0.52643718  0.30981401     0.06010
H444        H  0.19794521  0.50170215  0.30875808     0.05850
C445        C  0.22299759  0.50191240  0.63975293     0.02890
C446        C  0.25025724  0.50699534  0.61821073    -0.13260
C447        C  0.27929210  0.51622691  0.63533572     0.00390
C448        C  0.28088000  0.52068070  0.67427053    -0.11780
C449        C  0.25416619  0.51508031  0.69595781     0.02880
C450        C  0.22566232  0.50527947  0.67886214    -0.11210
H451        H  0.24885242  0.50466920  0.58808344     0.08480
H452        H  0.30312539  0.52757802  0.68778795     0.06010
H453        H  0.20546518  0.50039132  0.69630762     0.05850
C454        C  0.49092389  0.73095568  0.63387067     0.02890
C455        C  0.50050733  0.75825904  0.61478074    -0.13260
C456        C  0.50412070  0.78754200  0.63366526     0.00390
C457        C  0.49885873  0.78880180  0.67234458    -0.11780
C458        C  0.49009236  0.76148374  0.69164247     0.02880
C459        C  0.48561727  0.73272144  0.67238161    -0.11210
H460        H  0.50521643  0.75652487  0.58518124     0.08480
H461        H  0.50125051  0.81105964  0.68756878     0.06010
H462        H  0.47907114  0.71153550  0.68748178     0.05850
C463        C  0.24886326  0.99125972  0.13182374     0.02890
C464        C  0.25096161  0.99126584  0.17097967    -0.13260
C465        C  0.24436535  0.51891817  0.19141699     0.00390
C466        C  0.23614211  0.54697008  0.17281054    -0.11780
C467        C  0.23440016  0.54755578  0.13355969     0.02880
C468        C  0.24057914  0.51947048  0.11337374    -0.11210
H469        H  0.25675856  0.96952027  0.18560121     0.08480
H470        H  0.23169002  0.56839926  0.18888016     0.06010
H471        H  0.23882623  0.51948409  0.08314681     0.05850
O472        O  0.22804469  0.85083554  0.93092262    -0.75530
O473        O  0.27612659  0.85797434  0.96020427    -0.54440
C474        C  0.25332042  0.86710532  0.93821442     0.78200
O475        O  0.15562553  0.77855890  0.07178581    -0.60130
O476        O  0.14509168  0.73216409  0.04056055    -0.53160
C477        C  0.13787801  0.75447647  0.06381682     0.70210
O478        O  0.22913942  0.85477153  0.06482903    -0.74690
O479        O  0.27847113  0.85841663  0.03942601    -0.55250
C480        C  0.25515791  0.86961562  0.05834113     0.76220
O481        O  0.15124933  0.77767802  0.93132673    -0.59830
O482        O  0.14477821  0.72994187  0.96036051    -0.52950
C483        C  0.13519538  0.75262311  0.93908055     0.72810
Zr484      Zr  0.20343729  0.80039431  0.94498460     2.54710
O485        O  0.16350701  0.84209424  0.94127611    -0.80400
O486        O  0.20592548  0.79563640  0.87728074    -0.93820
Zr487      Zr  0.20574193  0.80257139  0.05526005     2.64680
O488        O  0.16556494  0.84403294  0.05981974    -0.98770
O489        O  0.21263050  0.80089530  0.12288220    -0.80830
O490        O  0.22683329  0.82294435  0.99961387    -0.84190
O491        O  0.18183581  0.78064962  0.00064831    -2.18900
O492        O  0.24249454  0.68284679  0.93111318    -0.67580
O493        O  0.19605188  0.67659815  0.96256778    -0.52140
C494        C  0.21784928  0.66685534  0.94030614     0.71190
O495        O  0.32006573  0.75851488  0.07043813    -0.60490
O496        O  0.32968202  0.80468271  0.03980575    -0.52460
C497        C  0.33752374  0.78258286  0.06295893     0.72990
O498        O  0.24519889  0.68448399  0.07037422    -0.71880
O499        O  0.19640233  0.67862207  0.04199995    -0.50560
C500        C  0.21957841  0.66885315  0.06293457     0.74380
O501        O  0.31795332  0.75670800  0.92955700    -0.67210
O502        O  0.32818093  0.80363949  0.95972285    -0.54410
C503        C  0.33549665  0.78105750  0.93685881     0.72760
Zr504      Zr  0.26733548  0.73370918  0.94535292     2.77540
O505        O  0.30854289  0.69318846  0.94209715    -0.97960
O506        O  0.26177731  0.73686652  0.87769997    -0.78780
Zr507      Zr  0.26886568  0.73543301  0.05606699     2.70070
O508        O  0.30923555  0.69443736  0.06292150    -0.80030
O509        O  0.26416425  0.74147189  0.12342006    -0.99110
Zr510      Zr  0.28228762  0.81112366  0.99983356     2.21500
Zr511      Zr  0.19130038  0.72463132  0.00110332     2.11130
O512        O  0.24672562  0.71283926  0.00096070    -2.47800
O513        O  0.29109023  0.75516512  0.00048569    -0.79820
O514        O  0.21213689  0.74480068  0.94421150    -0.72020
O515        O  0.26076940  0.79108065  0.05653128    -2.32970
O516        O  0.25864919  0.78921276  0.94386861    -2.29180
O517        O  0.21392189  0.74687735  0.05725586    -0.73780
H518        H  0.15937383  0.78530993  0.00084889     0.78220
H519        H  0.27093907  0.80079958  0.07817072     0.79310
H520        H  0.25054917  0.69023879  0.00116539     0.81530
H521        H  0.26807109  0.79828476  0.92195550     0.79140
H522        H  0.22967119  0.81651649  0.12866470     0.42180
H523        H  0.24280192  0.73299592  0.12896832     0.41150
H524        H  0.31308079  0.68704917  0.03705847     0.40820
H525        H  0.30204543  0.67667071  0.95997212     0.38760
H526        H  0.23913032  0.73185692  0.87240715     0.41890
H527        H  0.22646087  0.80548482  0.87074398     0.36670
H528        H  0.16238438  0.85059741  0.96709507     0.42790
H529        H  0.14826512  0.83731076  0.04237487     0.39200
H530        H  0.30562633  0.68315165  0.91715638     0.44120
H531        H  0.18966945  0.81073246  0.86792379     0.42850
H532        H  0.15654915  0.84166487  0.08501452     0.42980
H533        H  0.27910162  0.72558630  0.13391584     0.43340
C534        C  0.45973560  0.77189667  0.13844171     0.02890
C535        C  0.46107742  0.76946295  0.17769218    -0.13260
C536        C  0.48942155  0.76156581  0.19611621     0.00390
C537        C  0.01699927  0.75711850  0.17583391    -0.11780
C538        C  0.01669174  0.76061969  0.13689003     0.02880
C539        C  0.48787279  0.76757393  0.11812123    -0.11210
H540        H  0.44000587  0.77351034  0.19406362     0.08480
H541        H  0.03893342  0.75115303  0.19050795     0.06010
H542        H  0.48743130  0.76959101  0.08798168     0.05850
C543        C  0.25292074  0.99022369  0.86744175     0.02890
C544        C  0.25686055  0.99165975  0.82869910    -0.13260
C545        C  0.25235952  0.52019548  0.80973373     0.00390
C546        C  0.24364734  0.54762760  0.82945427    -0.11780
C547        C  0.23927349  0.54672525  0.86840752     0.02880
C548        C  0.24435024  0.51778456  0.88724070    -0.11210
H549        H  0.26281756  0.97029023  0.81319234     0.08480
H550        H  0.24038412  0.56962382  0.81437610     0.06010
H551        H  0.24024354  0.51623137  0.91695441     0.05850
C552        C  0.45636721  0.77295739  0.86273959     0.02890
C553        C  0.48456025  0.76761221  0.88344399    -0.13260
C554        C  0.01332152  0.76118558  0.86520740     0.00390
C555        C  0.01353906  0.76034998  0.82595362    -0.11780
C556        C  0.48566056  0.76579884  0.80526158     0.02880
C557        C  0.45733443  0.77233240  0.82350744    -0.11210
H558        H  0.48389041  0.76734893  0.91366946     0.08480
H559        H  0.03549114  0.75591384  0.81137710     0.06010
H560        H  0.43593850  0.77671064  0.80704912     0.05850
C561        C  0.23619464  0.61137148  0.94293954    -0.13580
C562        C  0.21672394  0.63417159  0.92576211     0.08560
C563        C  0.20261758  0.62732425  0.89090999    -0.13580
C564        C  0.20880570  0.59833242  0.87290296    -0.13580
C565        C  0.22965244  0.57595483  0.88922114     0.08560
C566        C  0.24255816  0.58254058  0.92495237    -0.13580
H567        H  0.24801636  0.61669764  0.96938346     0.12550
H568        H  0.18812349  0.64497454  0.87687143     0.12550
H569        H  0.19794800  0.59382814  0.84574196     0.12550
H570        H  0.25899235  0.56619850  0.93820480     0.12550
C571        C  0.23329045  0.90554515  0.89067350    -0.13580
C572        C  0.25511260  0.89854894  0.91973831     0.08560
C573        C  0.27678354  0.92227320  0.93151823    -0.13580
C574        C  0.27610615  0.95244063  0.91491807    -0.13580
C575        C  0.25411297  0.95901791  0.88601253     0.08560
C576        C  0.23290880  0.93527887  0.87400582    -0.13580
H577        H  0.21622115  0.88801058  0.88070135     0.12550
H578        H  0.29374926  0.91773078  0.95391602     0.12550
H579        H  0.29278697  0.97052731  0.92439351     0.12550
H580        H  0.21571465  0.93991851  0.85184228     0.12550
C581        C  0.39531257  0.79928195  0.06921767    -0.13580
C582        C  0.36856361  0.78352959  0.08312292     0.08560
C583        C  0.37203597  0.76543730  0.11576494    -0.13580
C584        C  0.40146928  0.76198007  0.13327089    -0.13580
C585        C  0.42850443  0.77698742  0.11927416     0.08560
C586        C  0.42514494  0.79597109  0.08716352    -0.13580
H587        H  0.39338103  0.81321740  0.04399649     0.12550
H588        H  0.35197482  0.75306129  0.12748288     0.12550
H589        H  0.40309717  0.74665368  0.15735745     0.12550
H590        H  0.44552180  0.80808518  0.07588136     0.12550
C591        C  0.10304113  0.77239898  0.11508936    -0.13580
C592        C  0.10687786  0.75380623  0.08268907     0.08560
C593        C  0.08042734  0.73737471  0.06757489    -0.13580
C594        C  0.05064977  0.73987909  0.08455400    -0.13580
C595        C  0.04716558  0.75854663  0.11699428     0.08560
C596        C  0.07364491  0.77478467  0.13189155    -0.13580
H597        H  0.12282290  0.78547274  0.12746932     0.12550
H598        H  0.08260997  0.72323857  0.04233605     0.12550
H599        H  0.03052091  0.72701201  0.07270489     0.12550
H600        H  0.07154820  0.78961068  0.15661443     0.12550
C601        C  0.39277476  0.79848467  0.93152855    -0.13580
C602        C  0.36614073  0.78195728  0.91713491     0.08560
C603        C  0.36941690  0.76355799  0.88446505    -0.13580
C604        C  0.39857524  0.76101234  0.86705088    -0.13580
C605        C  0.42541960  0.77692765  0.88156279     0.08560
C606        C  0.42228602  0.79584694  0.91394385    -0.13580
H607        H  0.39101242  0.81260361  0.95683782     0.12550
H608        H  0.34941992  0.75052376  0.87252570     0.12550
H609        H  0.40024226  0.74583223  0.84258614     0.12550
H610        H  0.44261006  0.80851602  0.92561470     0.12550
C611        C  0.09527485  0.73085042  0.89342594    -0.13580
C612        C  0.10284652  0.75116001  0.92342853     0.08560
C613        C  0.08027514  0.77308373  0.93595290    -0.13580
C614        C  0.05067460  0.77541510  0.91799261    -0.13580
C615        C  0.04332081  0.75611213  0.88681692     0.08560
C616        C  0.06570350  0.73333771  0.87517071    -0.13580
H617        H  0.11264090  0.71402645  0.88325653     0.12550
H618        H  0.08599066  0.78909523  0.95897181     0.12550
H619        H  0.03414731  0.79335624  0.92742218     0.12550
H620        H  0.06055215  0.71783779  0.85153854     0.12550
C621        C  0.24117388  0.61464724  0.06451020    -0.13580
C622        C  0.21879000  0.63646723  0.07769687     0.08560
C623        C  0.20006153  0.62850261  0.10824535    -0.13580
C624        C  0.20450888  0.59924590  0.12611940    -0.13580
C625        C  0.22762149  0.57763398  0.11346866     0.08560
C626        C  0.24544105  0.58549323  0.08202213    -0.13580
H627        H  0.25626613  0.62074573  0.04140243     0.12550
H628        H  0.18310265  0.64537905  0.11919081     0.12550
H629        H  0.19026718  0.59371624  0.15012573     0.12550
H630        H  0.26373655  0.56968413  0.07191247     0.12550
C631        C  0.27858463  0.94064264  0.11797285    -0.13580
C632        C  0.25306605  0.96135130  0.11030401     0.08560
C633        C  0.23028185  0.95259058  0.08303568    -0.13580
C634        C  0.23210474  0.92320346  0.06499073    -0.13580
C635        C  0.25704132  0.90219700  0.07327543     0.08560
C636        C  0.28072475  0.91130489  0.09927087    -0.13580
H637        H  0.29650836  0.94695980  0.13881622     0.12550
H638        H  0.21022153  0.96789431  0.07686534     0.12550
H639        H  0.21345944  0.91640397  0.04523142     0.12550
H640        H  0.29988166  0.89516192  0.10638025     0.12550
C641        C  0.48708132  0.76284522  0.73156281    -0.13510
C642        C  0.48604899  0.76428573  0.76513593    -0.15070
C643        C  0.25572166  0.51885028  0.73600838    -0.13510
C644        C  0.25500949  0.52058241  0.76964878    -0.15070
C645        C  0.24631651  0.51663324  0.26523408    -0.13510
C646        C  0.24553377  0.51820047  0.23161718    -0.15070
C647        C  0.49280676  0.75623724  0.26951349    -0.13510
C648        C  0.49055657  0.75831761  0.23604764    -0.15070
C649        C  0.03514608  0.87016565  0.61186763    -0.13580
C650        C  0.02116367  0.87531878  0.57670211     0.08560
C651        C  0.50380502  0.85090720  0.55903953    -0.13580
C652        C  0.49931091  0.82197573  0.57695159    -0.13580
C653        C  0.51215603  0.81692452  0.61295241     0.08560
C654        C  0.03093240  0.84105895  0.62974822    -0.13580
H655        H  0.04816216  0.88905959  0.62608126     0.12550
H656        H  0.49227997  0.85488118  0.53218120     0.12550
H657        H  0.48432262  0.80426786  0.56336629     0.12550
H658        H  0.04168119  0.83779106  0.65712567     0.12550
C659        C  0.45900588  0.65252201  0.59589857    -0.13580
C660        C  0.48605112  0.64030069  0.57843303     0.08560
C661        C  0.01402931  0.65856932  0.57814922    -0.13580
C662        C  0.01518781  0.68834208  0.59540998    -0.13580
C663        C  0.48859925  0.70017185  0.61396610     0.08560
C664        C  0.46041947  0.68216386  0.61404876    -0.13580
H665        H  0.43728482  0.63870844  0.59664123     0.12550
H666        H  0.03516261  0.64964563  0.56473349     0.12550
H667        H  0.03714745  0.70181917  0.59516808     0.12550
H668        H  0.43963835  0.69103321  0.62820682     0.12550
C669        C  0.48317013  0.83461806  0.38809954    -0.13580
C670        C  0.50964362  0.81474916  0.38735000     0.08560
C671        C  0.03847406  0.82488621  0.40394625    -0.13580
C672        C  0.04076169  0.85518300  0.42067197    -0.13580
C673        C  0.01420330  0.87546754  0.42074080     0.08560
C674        C  0.48533788  0.86448278  0.40462128    -0.13580
H675        H  0.46074892  0.82701454  0.37558019     0.12550
H676        H  0.05916280  0.80961334  0.40342846     0.12550
H677        H  0.06318581  0.86282309  0.43305799     0.12550
H678        H  0.46408591  0.87897654  0.40464867     0.12550
C679        C  0.00658445  0.69148702  0.42202888    -0.13580
C680        C  0.48810934  0.69790562  0.38988815     0.08560
C681        C  0.46522435  0.67534176  0.37787118    -0.13580
C682        C  0.46177873  0.64660061  0.39686269    -0.13580
C683        C  0.48105461  0.64014033  0.42815027     0.08560
C684        C  0.00313376  0.66287119  0.44084454    -0.13580
H685        H  0.02474699  0.70796270  0.43178011     0.12550
H686        H  0.45028385  0.67969270  0.35354050     0.12550
H687        H  0.44510756  0.62893132  0.38625842     0.12550
H688        H  0.01864408  0.65787680  0.46454973     0.12550
C689        C  0.18792497  0.97747640  0.58840684    -0.13580
C690        C  0.19129605  0.49526314  0.62185953     0.08560
C691        C  0.16384735  0.50811608  0.63787641    -0.13580
C692        C  0.13419775  0.50414615  0.62077850    -0.13580
C693        C  0.13086722  0.98776438  0.58657477     0.08560
C694        C  0.15792279  0.97375860  0.57088146    -0.13580
H695        H  0.20846632  0.96685373  0.57548922     0.12550
H696        H  0.16523569  0.52254764  0.66300957     0.12550
H697        H  0.11387359  0.51516789  0.63379548     0.12550
H698        H  0.15612533  0.96118113  0.54441170     0.12550
C699        C  0.35779169  0.54732389  0.59934072    -0.13580
C700        C  0.36744344  0.52175721  0.57686012     0.08560
C701        C  0.34693742  0.49571970  0.57145917    -0.13580
C702        C  0.31756422  0.49478544  0.58900596    -0.13580
C703        C  0.30848177  0.51952357  0.61305486     0.08560
C704        C  0.32865830  0.54602600  0.61773083    -0.13580
H705        H  0.37336779  0.56754228  0.60398562     0.12550
H706        H  0.35395295  0.97579439  0.55411411     0.12550
H707        H  0.30256460  0.97403452  0.58515097     0.12550
H708        H  0.32208623  0.56542876  0.63609188     0.12550
C709        C  0.13437250  0.51410727  0.38855756    -0.13580
C710        C  0.13015450  0.99251924  0.41789259     0.08560
C711        C  0.15621608  0.97381428  0.42940036    -0.13580
C712        C  0.18592062  0.97727190  0.41219594    -0.13580
C713        C  0.18974858  0.49924595  0.38312969     0.08560
C714        C  0.16361100  0.51751303  0.37170335    -0.13580
H715        H  0.11506042  0.52902652  0.37874117     0.12550
H716        H  0.15385433  0.95720451  0.45211707     0.12550
H717        H  0.20576527  0.96278839  0.42140354     0.12550
H718        H  0.16588161  0.53495421  0.34982278     0.12550
C719        C  0.36526734  0.51070308  0.38468098    -0.13580
C720        C  0.36849096  0.52554232  0.41982488     0.08560
C721        C  0.34139639  0.53852166  0.43656836    -0.13580
C722        C  0.31144778  0.53570379  0.41874695    -0.13580
C723        C  0.30833526  0.52010411  0.38387610     0.08560
C724        C  0.33570108  0.50785411  0.36713143    -0.13580
H725        H  0.38567486  0.50048261  0.37097482     0.12550
H726        H  0.34319540  0.54978923  0.46383230     0.12550
H727        H  0.29080577  0.54565040  0.43217712     0.12550
H728        H  0.33422848  0.49524091  0.34066961     0.12550
O729        O  0.91665550  0.49957220  0.43084451    -0.75530
O730        O  0.90779987  0.04528474  0.46366533    -0.54440
C731        C  0.89959675  0.02371589  0.43955552     0.78200
O732        O  0.99414547  0.42316428  0.57021537    -0.60130
O733        O  0.54078986  0.41668432  0.53900778    -0.53160
C734        C  0.51908436  0.40735031  0.56137067     0.70210
O735        O  0.91528441  0.49472686  0.56659270    -0.74690
O736        O  0.90975138  0.04476772  0.54313373    -0.55250
C737        C  0.89959753  0.02058471  0.56124260     0.76220
O738        O  0.99062271  0.42499350  0.43008988    -0.59830
O739        O  0.53823011  0.41640485  0.45958493    -0.52950
C740        C  0.51497349  0.40775724  0.43771835     0.72810
Zr741      Zr  0.96728218  0.47544305  0.44571770     2.54710
O742        O  0.92606814  0.43483801  0.44195832    -0.80400
O743        O  0.97027648  0.47871774  0.37801229    -0.93820
Zr744      Zr  0.96829357  0.47343772  0.55601184     2.64680
O745        O  0.92826297  0.43171291  0.55978171    -0.98770
O746        O  0.97222666  0.47853573  0.62372692    -0.80830
O747        O  0.94529582  0.49545783  0.50137288    -0.84190
O748        O  0.98951701  0.45254201  0.50019958    -2.18900
O749        O  0.58165379  0.01696032  0.43077317    -0.67580
O750        O  0.59182504  0.47013091  0.45996698    -0.52140
C751        C  0.59924126  0.49269888  0.43747774     0.71190
O752        O  0.51229619  0.09213495  0.56863086    -0.60490
O753        O  0.96230990  0.09760414  0.54366071    -0.52460
C754        C  0.98659436  0.10789164  0.56261885     0.72990
O755        O  0.58267500  0.01362962  0.57482705    -0.71880
O756        O  0.59236006  0.46856483  0.54113480    -0.50560
C757        C  0.59995371  0.48960999  0.56617713     0.74380
O758        O  0.50847034  0.09284093  0.43634248    -0.67210
O759        O  0.96003878  0.09788073  0.46385606    -0.54410
C760        C  0.98287481  0.10810627  0.44362068     0.72540
Zr761      Zr  0.53192663  0.04128335  0.44770040     2.77540
O762        O  0.57243365  0.08260260  0.44494533    -0.97960
O763        O  0.52572279  0.03912681  0.37999520    -0.78780
Zr764      Zr  0.53319408  0.03930892  0.55793597     2.70070
O765        O  0.57615373  0.07772693  0.56563135    -0.80030
O766        O  0.52640177  0.03646649  0.62518807    -0.99110
Zr767      Zr  0.95550256  0.05108418  0.50317432     2.21500
Zr768      Zr  0.54543599  0.46347173  0.49997703     2.11130
O769        O  0.55540308  0.01940144  0.50218367    -2.47800
O770        O  0.51101358  0.06221444  0.50351317    -0.79820
O771        O  0.52259827  0.48582108  0.44442024    -0.72020
O772        O  0.97790545  0.02888074  0.55909573    -2.32970
O773        O  0.97671411  0.03076578  0.44619785    -2.29180
O774        O  0.52376800  0.48387801  0.55687636    -0.73780
H775        H  0.98539616  0.42997892  0.49966956     0.78220
H776        H  0.96853626  0.03819707  0.58106916     0.79310
H777        H  0.57794545  0.02380668  0.50255729     0.81530
H778        H  0.96676905  0.04064013  0.42473355     0.79140
H779        H  0.95569049  0.49422577  0.63035188     0.42180
H780        H  0.53267000  0.01450080  0.63167539     0.41150
H781        H  0.58033060  0.08501583  0.53994934     0.40820
H782        H  0.58962645  0.07554536  0.46218006     0.38760
H783        H  0.53165665  0.01711714  0.37307930     0.41890
H784        H  0.96176026  0.49998450  0.37182843     0.36670
H785        H  0.91855836  0.43292748  0.46790793     0.42790
H786        H  0.93498295  0.41516605  0.54175122     0.39200
H787        H  0.58150285  0.08050662  0.41970202     0.44120
H788        H  0.95377186  0.46371488  0.36863633     0.42850
H789        H  0.93166654  0.42207295  0.58465867     0.42980
H790        H  0.54372020  0.04991099  0.63578134     0.43340
C791        C  0.99356225  0.22759204  0.36861631     0.02890
C792        C  0.00124541  0.25616427  0.38755397    -0.13260
C793        C  0.00653010  0.28412351  0.36764486     0.00390
C794        C  0.00388664  0.28380164  0.32865093    -0.11780
C795        C  0.99625382  0.25571543  0.30950918     0.02880
C796        C  0.99130997  0.22763224  0.32929795    -0.11210
H797        H  0.00184955  0.25710203  0.41780432     0.08480
H798        H  0.00696637  0.30567638  0.31330772     0.06010
H799        H  0.98588414  0.20591310  0.31401050     0.05850
C800        C  0.72030509  0.00366010  0.36363211     0.02890
C801        C  0.74918578  0.00850729  0.38343558    -0.13260
C802        C  0.77710551  0.01637130  0.36417885     0.00390
C803        C  0.77556406  0.01959372  0.32507678    -0.11780
C804        C  0.74725425  0.01399736  0.30531291     0.02880
C805        C  0.71986846  0.00584818  0.32443479    -0.11210
H806        H  0.74980798  0.00648057  0.41357446     0.08480
H807        H  0.79649566  0.02643717  0.30981400     0.06010
H808        H  0.69794519  0.00170217  0.30875811     0.05850
C809        C  0.72299758  0.00191240  0.63975293     0.02890
C810        C  0.75025723  0.00699534  0.61821072    -0.13260
C811        C  0.77929209  0.01622691  0.63533572     0.00390
C812        C  0.78087999  0.02068070  0.67427053    -0.11780
C813        C  0.75416618  0.01508031  0.69595781     0.02880
C814        C  0.72566231  0.00527948  0.67886214    -0.11210
H815        H  0.74885241  0.00466921  0.58808343     0.08480
H816        H  0.80312537  0.02757802  0.68778795     0.06010
H817        H  0.70546516  0.00039133  0.69630762     0.05850
C818        C  0.99092390  0.23095567  0.63387067     0.02890
C819        C  0.00050734  0.25825903  0.61478075    -0.13260
C820        C  0.00412071  0.28754199  0.63366526     0.00390
C821        C  0.99885874  0.28880179  0.67234459    -0.11780
C822        C  0.99009237  0.26148373  0.69164247     0.02880
C823        C  0.98561728  0.23272144  0.67238161    -0.11210
H824        H  0.00521643  0.25652487  0.58518124     0.08480
H825        H  0.00125052  0.31105964  0.68756878     0.06010
H826        H  0.97907115  0.21153550  0.68748179     0.05850
C827        C  0.74886327  0.49125972  0.13182374     0.02890
C828        C  0.75096162  0.49126585  0.17097967    -0.13260
C829        C  0.74436533  0.01891817  0.19141700     0.00390
C830        C  0.73614209  0.04697008  0.17281055    -0.11780
C831        C  0.73440016  0.04755578  0.13355969     0.02880
C832        C  0.74057914  0.01947048  0.11337374    -0.11210
H833        H  0.75675858  0.46952028  0.18560121     0.08480
H834        H  0.73169001  0.06839926  0.18888016     0.06010
H835        H  0.73882623  0.01948409  0.08314681     0.05850
O836        O  0.72804470  0.35083554  0.93092261    -0.75530
O837        O  0.77612660  0.35797434  0.96020426    -0.54440
C838        C  0.75332043  0.36710532  0.93821441     0.78200
O839        O  0.65562553  0.27855891  0.07178580    -0.60130
O840        O  0.64509168  0.23216409  0.04056054    -0.53160
C841        C  0.63787801  0.25447647  0.06381681     0.70210
O842        O  0.72913942  0.35477154  0.06482902    -0.74690
O843        O  0.77847114  0.35841663  0.03942601    -0.55250
C844        C  0.75515791  0.36961563  0.05834113     0.76220
O845        O  0.65124935  0.27767800  0.93132669    -0.59830
O846        O  0.64477822  0.22994187  0.96036051    -0.52950
C847        C  0.63519540  0.25262310  0.93908053     0.72810
Zr848      Zr  0.70343730  0.30039431  0.94498459     2.54710
O849        O  0.66350701  0.34209423  0.94127610    -0.80400
O850        O  0.70592551  0.29563640  0.87728072    -0.93820
Zr851      Zr  0.70574193  0.30257140  0.05526004     2.64680
O852        O  0.66556494  0.34403295  0.05981971    -0.98770
O853        O  0.71263049  0.30089531  0.12288219    -0.80830
O854        O  0.72683329  0.32294434  0.99961385    -0.84190
O855        O  0.68183581  0.28064962  0.00064830    -2.18900
O856        O  0.74249455  0.18284679  0.93111319    -0.67580
O857        O  0.69605188  0.17659815  0.96256778    -0.52140
C858        C  0.71784929  0.16685534  0.94030615     0.71190
O859        O  0.82006573  0.25851489  0.07043814    -0.60490
O860        O  0.82968203  0.30468271  0.03980575    -0.52460
C861        C  0.83752374  0.28258287  0.06295893     0.72990
O862        O  0.74519890  0.18448399  0.07037423    -0.71880
O863        O  0.69640233  0.17862207  0.04199995    -0.50560
C864        C  0.71957841  0.16885315  0.06293457     0.74380
O865        O  0.81795333  0.25670799  0.92955700    -0.67210
O866        O  0.82818094  0.30363949  0.95972285    -0.54410
C867        C  0.83549666  0.28105750  0.93685882     0.72760
Zr868      Zr  0.76733549  0.23370917  0.94535293     2.77540
O869        O  0.80854290  0.19318845  0.94209716    -0.97960
O870        O  0.76177733  0.23686650  0.87769998    -0.78780
Zr871      Zr  0.76886568  0.23543302  0.05606699     2.70070
O872        O  0.80923556  0.19443736  0.06292150    -0.80030
O873        O  0.76416425  0.24147189  0.12342007    -0.99110
Zr874      Zr  0.78228762  0.31112366  0.99983356     2.21500
Zr875      Zr  0.69130038  0.22463132  0.00110332     2.11130
O876        O  0.74672563  0.21283926  0.00096070    -2.47800
O877        O  0.79109023  0.25516512  0.00048569    -0.79820
O878        O  0.71213690  0.24480067  0.94421150    -0.72020
O879        O  0.76076941  0.29108065  0.05653128    -2.32970
O880        O  0.75864920  0.28921276  0.94386861    -2.29180
O881        O  0.71392189  0.24687736  0.05725585    -0.73780
H882        H  0.65937383  0.28530993  0.00084888     0.78220
H883        H  0.77093907  0.30079959  0.07817071     0.79310
H884        H  0.75054917  0.19023879  0.00116539     0.81530
H885        H  0.76807110  0.29828475  0.92195550     0.79140
H886        H  0.72967119  0.31651650  0.12866469     0.42180
H887        H  0.74280192  0.23299594  0.12896832     0.41150
H888        H  0.81308082  0.18704920  0.03705847     0.40820
H889        H  0.80204544  0.17667071  0.95997214     0.38760
H890        H  0.73913033  0.23185691  0.87240715     0.41890
H891        H  0.72646089  0.30548483  0.87074397     0.36670
H892        H  0.66238440  0.35059741  0.96709506     0.42790
H893        H  0.64826513  0.33731076  0.04237484     0.39200
H894        H  0.80562634  0.18315165  0.91715640     0.44120
H895        H  0.68966948  0.31073246  0.86792378     0.42850
H896        H  0.65654915  0.34166488  0.08501450     0.42980
H897        H  0.77910161  0.22558630  0.13391585     0.43340
C898        C  0.95973561  0.27189667  0.13844172     0.02890
C899        C  0.96107743  0.26946295  0.17769218    -0.13260
C900        C  0.98942156  0.26156581  0.19611621     0.00390
C901        C  0.51699928  0.25711850  0.17583391    -0.11780
C902        C  0.51669175  0.26061970  0.13689003     0.02880
C903        C  0.98787279  0.26757393  0.11812123    -0.11210
H904        H  0.94000588  0.27351034  0.19406363     0.08480
H905        H  0.53893343  0.25115303  0.19050794     0.06010
H906        H  0.98743131  0.26959100  0.08798168     0.05850
C907        C  0.75292075  0.49022369  0.86744176     0.02890
C908        C  0.75686055  0.49165975  0.82869910    -0.13260
C909        C  0.75235950  0.02019548  0.80973372     0.00390
C910        C  0.74364733  0.04762760  0.82945427    -0.11780
C911        C  0.73927348  0.04672525  0.86840752     0.02880
C912        C  0.74435023  0.01778456  0.88724070    -0.11210
H913        H  0.76281757  0.47029023  0.81319234     0.08480
H914        H  0.74038412  0.06962383  0.81437610     0.06010
H915        H  0.74024353  0.01623136  0.91695441     0.05850
C916        C  0.95636722  0.27295739  0.86273959     0.02890
C917        C  0.98456026  0.26761221  0.88344399    -0.13260
C918        C  0.51332154  0.26118559  0.86520738     0.00390
C919        C  0.51353907  0.26035002  0.82595359    -0.11780
C920        C  0.98566057  0.26579883  0.80526159     0.02880
C921        C  0.95733443  0.27233239  0.82350744    -0.11210
H922        H  0.98389041  0.26734894  0.91366946     0.08480
H923        H  0.53549114  0.25591390  0.81137706     0.06010
H924        H  0.93593850  0.27671064  0.80704912     0.05850
C925        C  0.73619465  0.11137148  0.94293954    -0.13580
C926        C  0.71672395  0.13417159  0.92576211     0.08560
C927        C  0.70261758  0.12732424  0.89091000    -0.13580
C928        C  0.70880570  0.09833242  0.87290297    -0.13580
C929        C  0.72965243  0.07595483  0.88922114     0.08560
C930        C  0.74255816  0.08254057  0.92495237    -0.13580
H931        H  0.74801637  0.11669764  0.96938346     0.12550
H932        H  0.68812349  0.14497454  0.87687144     0.12550
H933        H  0.69794799  0.09382814  0.84574196     0.12550
H934        H  0.75899236  0.06619850  0.93820479     0.12550
C935        C  0.73329046  0.40554514  0.89067349    -0.13580
C936        C  0.75511261  0.39854894  0.91973831     0.08560
C937        C  0.77678355  0.42227320  0.93151823    -0.13580
C938        C  0.77610615  0.45244063  0.91491807    -0.13580
C939        C  0.75411298  0.45901791  0.88601253     0.08560
C940        C  0.73290881  0.43527887  0.87400582    -0.13580
H941        H  0.71622116  0.38801058  0.88070134     0.12550
H942        H  0.79374927  0.41773078  0.95391602     0.12550
H943        H  0.79278698  0.47052731  0.92439352     0.12550
H944        H  0.71571466  0.43991851  0.85184228     0.12550
C945        C  0.89531258  0.29928195  0.06921768    -0.13580
C946        C  0.86856362  0.28352959  0.08312292     0.08560
C947        C  0.87203597  0.26543730  0.11576495    -0.13580
C948        C  0.90146928  0.26198007  0.13327090    -0.13580
C949        C  0.92850443  0.27698742  0.11927416     0.08560
C950        C  0.92514494  0.29597109  0.08716353    -0.13580
H951        H  0.89338103  0.31321740  0.04399649     0.12550
H952        H  0.85197482  0.25306129  0.12748289     0.12550
H953        H  0.90309717  0.24665369  0.15735746     0.12550
H954        H  0.94552180  0.30808517  0.07588136     0.12550
C955        C  0.60304113  0.27239899  0.11508935    -0.13580
C956        C  0.60687787  0.25380623  0.08268907     0.08560
C957        C  0.58042734  0.23737471  0.06757488    -0.13580
C958        C  0.55064977  0.23987909  0.08455399    -0.13580
C959        C  0.54716559  0.25854663  0.11699428     0.08560
C960        C  0.57364492  0.27478467  0.13189154    -0.13580
H961        H  0.62282290  0.28547274  0.12746931     0.12550
H962        H  0.58260997  0.22323857  0.04233604     0.12550
H963        H  0.53052091  0.22701201  0.07270489     0.12550
H964        H  0.57154821  0.28961068  0.15661442     0.12550
C965        C  0.89277476  0.29848467  0.93152855    -0.13580
C966        C  0.86614074  0.28195728  0.91713491     0.08560
C967        C  0.86941691  0.26355799  0.88446505    -0.13580
C968        C  0.89857525  0.26101235  0.86705088    -0.13580
C969        C  0.92541961  0.27692765  0.88156279     0.08560
C970        C  0.92228603  0.29584694  0.91394385    -0.13580
H971        H  0.89101243  0.31260361  0.95683782     0.12550
H972        H  0.84941993  0.25052376  0.87252570     0.12550
H973        H  0.90024227  0.24583223  0.84258614     0.12550
H974        H  0.94261007  0.30851602  0.92561470     0.12550
C975        C  0.59527491  0.23085048  0.89342582    -0.13580
C976        C  0.60284654  0.25115999  0.92342850     0.08560
C977        C  0.58027513  0.27308363  0.93595295    -0.13580
C978        C  0.55067459  0.27541502  0.91799265    -0.13580
C979        C  0.54332083  0.25611213  0.88681689     0.08560
C980        C  0.56570356  0.23333778  0.87517059    -0.13580
H981        H  0.61264098  0.21402657  0.88325635     0.12550
H982        H  0.58599061  0.28909507  0.95897192     0.12550
H983        H  0.53414727  0.29335611  0.92742230     0.12550
H984        H  0.56055224  0.21783791  0.85153837     0.12550
C985        C  0.74117388  0.11464725  0.06451021    -0.13580
C986        C  0.71879000  0.13646723  0.07769687     0.08560
C987        C  0.70006153  0.12850262  0.10824535    -0.13580
C988        C  0.70450888  0.09924591  0.12611940    -0.13580
C989        C  0.72762149  0.07763398  0.11346866     0.08560
C990        C  0.74544105  0.08549323  0.08202214    -0.13580
H991        H  0.75626614  0.12074573  0.04140244     0.12550
H992        H  0.68310265  0.14537905  0.11919081     0.12550
H993        H  0.69026717  0.09371624  0.15012572     0.12550
H994        H  0.76373655  0.06968414  0.07191248     0.12550
C995        C  0.77858464  0.44064264  0.11797284    -0.13580
C996        C  0.75306605  0.46135130  0.11030401     0.08560
C997        C  0.73028186  0.45259058  0.08303568    -0.13580
C998        C  0.73210474  0.42320346  0.06499073    -0.13580
C999        C  0.75704132  0.40219700  0.07327542     0.08560
C1000       C  0.78072476  0.41130489  0.09927085    -0.13580
H1001       H  0.79650837  0.44695981  0.13881620     0.12550
H1002       H  0.71022153  0.46789431  0.07686535     0.12550
H1003       H  0.71345944  0.41640397  0.04523143     0.12550
H1004       H  0.79988167  0.39516192  0.10638023     0.12550
C1005       C  0.98708134  0.26284521  0.73156281    -0.13510
C1006       C  0.98604900  0.26428572  0.76513594    -0.15070
C1007       C  0.75572165  0.01885029  0.73600837    -0.13510
C1008       C  0.75500948  0.02058241  0.76964878    -0.15070
C1009       C  0.74631649  0.01663324  0.26523408    -0.13510
C1010       C  0.74553374  0.01820047  0.23161718    -0.15070
C1011       C  0.99280676  0.25623724  0.26951349    -0.13510
C1012       C  0.99055658  0.25831761  0.23604764    -0.15070
C1013       C  0.53514610  0.37016564  0.61186760    -0.13580
C1014       C  0.52116367  0.37531878  0.57670209     0.08560
C1015       C  0.00380501  0.35090719  0.55903954    -0.13580
C1016       C  0.99931090  0.32197573  0.57695160    -0.13580
C1017       C  0.01215604  0.31692451  0.61295242     0.08560
C1018       C  0.53093241  0.34105893  0.62974819    -0.13580
H1019       H  0.54816219  0.38905956  0.62608122     0.12550
H1020       H  0.99227995  0.35488118  0.53218122     0.12550
H1021       H  0.98432261  0.30426786  0.56336630     0.12550
H1022       H  0.54168121  0.33779104  0.65712563     0.12550
C1023       C  0.95900588  0.15252200  0.59589858    -0.13580
C1024       C  0.98605112  0.14030069  0.57843303     0.08560
C1025       C  0.51402928  0.15856932  0.57814921    -0.13580
C1026       C  0.51518778  0.18834209  0.59540998    -0.13580
C1027       C  0.98859925  0.20017185  0.61396610     0.08560
C1028       C  0.96041947  0.18216385  0.61404877    -0.13580
H1029       H  0.93728482  0.13870844  0.59664125     0.12550
H1030       H  0.53516258  0.14964564  0.56473349     0.12550
H1031       H  0.53714742  0.20181918  0.59516808     0.12550
H1032       H  0.93963836  0.19103321  0.62820683     0.12550
C1033       C  0.98317012  0.33461805  0.38809958    -0.13580
C1034       C  0.00964362  0.31474916  0.38735001     0.08560
C1035       C  0.53847408  0.32488622  0.40394624    -0.13580
C1036       C  0.54076170  0.35518301  0.42067196    -0.13580
C1037       C  0.51420332  0.37546754  0.42074080     0.08560
C1038       C  0.98533787  0.36448277  0.40462131    -0.13580
H1039       H  0.96074891  0.32701453  0.37558024     0.12550
H1040       H  0.55916282  0.30961335  0.40342843     0.12550
H1041       H  0.56318583  0.36282310  0.43305797     0.12550
H1042       H  0.96408590  0.37897652  0.40464872     0.12550
C1043       C  0.50658445  0.19148702  0.42202888    -0.13580
C1044       C  0.98810933  0.19790561  0.38988815     0.08560
C1045       C  0.96522435  0.17534176  0.37787117    -0.13580
C1046       C  0.96177873  0.14660060  0.39686268    -0.13580
C1047       C  0.98105460  0.14014033  0.42815027     0.08560
C1048       C  0.50313375  0.16287119  0.44084454    -0.13580
H1049       H  0.52474700  0.20796269  0.43178011     0.12550
H1050       H  0.95028386  0.17969269  0.35354048     0.12550
H1051       H  0.94510757  0.12893131  0.38625840     0.12550
H1052       H  0.51864408  0.15787680  0.46454973     0.12550
C1053       C  0.68792497  0.47747641  0.58840684    -0.13580
C1054       C  0.69129604  0.99526315  0.62185953     0.08560
C1055       C  0.66384734  0.00811609  0.63787640    -0.13580
C1056       C  0.63419774  0.00414617  0.62077848    -0.13580
C1057       C  0.63086723  0.48776439  0.58657478     0.08560
C1058       C  0.65792280  0.47375861  0.57088146    -0.13580
H1059       H  0.70846633  0.46685373  0.57548923     0.12550
H1060       H  0.66523569  0.02254766  0.66300956     0.12550
H1061       H  0.61387358  0.01516791  0.63379546     0.12550
H1062       H  0.65612534  0.46118114  0.54441171     0.12550
C1063       C  0.85779168  0.04732389  0.59934072    -0.13580
C1064       C  0.86744344  0.02175721  0.57686013     0.08560
C1065       C  0.84693742  0.99571969  0.57145918    -0.13580
C1066       C  0.81756422  0.99478544  0.58900597    -0.13580
C1067       C  0.80848176  0.01952357  0.61305486     0.08560
C1068       C  0.82865829  0.04602600  0.61773083    -0.13580
H1069       H  0.87336778  0.06754228  0.60398562     0.12550
H1070       H  0.85395296  0.47579439  0.55411411     0.12550
H1071       H  0.80256461  0.47403453  0.58515097     0.12550
H1072       H  0.82208622  0.06542876  0.63609188     0.12550
C1073       C  0.63437254  0.01410737  0.38855765    -0.13580
C1074       C  0.63015450  0.49251923  0.41789259     0.08560
C1075       C  0.65621610  0.47381431  0.42940039    -0.13580
C1076       C  0.68592064  0.47727193  0.41219597    -0.13580
C1077       C  0.68974859  0.99924597  0.38312971     0.08560
C1078       C  0.66361104  0.01751311  0.37170344    -0.13580
H1079       H  0.61506048  0.02902668  0.37874131     0.12550
H1080       H  0.65385436  0.45720456  0.45211713     0.12550
H1081       H  0.70576530  0.46278845  0.42140359     0.12550
H1082       H  0.66588168  0.03495434  0.34982292     0.12550
C1083       C  0.86526734  0.01070310  0.38468097    -0.13580
C1084       C  0.86849096  0.02554233  0.41982487     0.08560
C1085       C  0.84139639  0.03852166  0.43656835    -0.13580
C1086       C  0.81144778  0.03570379  0.41874694    -0.13580
C1087       C  0.80833527  0.02010412  0.38387610     0.08560
C1088       C  0.83570108  0.00785413  0.36713141    -0.13580
H1089       H  0.88567487  0.00048264  0.37097481     0.12550
H1090       H  0.84319539  0.04978923  0.46383230     0.12550
H1091       H  0.79080577  0.04565040  0.43217711     0.12550
H1092       H  0.83422849  0.99524092  0.34066960     0.12550
O1093       O  0.91665548  0.99957220  0.43084451    -0.75530
O1094       O  0.90779988  0.54528474  0.46366533    -0.54440
C1095       C  0.89959677  0.52371589  0.43955552     0.78200
O1096       O  0.99414547  0.92316429  0.57021538    -0.60130
O1097       O  0.54078985  0.91668432  0.53900778    -0.53160
C1098       C  0.51908435  0.90735031  0.56137068     0.70210
O1099       O  0.91528441  0.99472686  0.56659271    -0.74690
O1100       O  0.90975139  0.54476772  0.54313373    -0.55250
C1101       C  0.89959754  0.52058471  0.56124260     0.76220
O1102       O  0.99062269  0.92499350  0.43008988    -0.59830
O1103       O  0.53823011  0.91640485  0.45958493    -0.52950
C1104       C  0.51497348  0.90775724  0.43771835     0.72810
Zr1105     Zr  0.96728216  0.97544304  0.44571770     2.54710
O1106       O  0.92606812  0.93483800  0.44195836    -0.80400
O1107       O  0.97027644  0.97871771  0.37801229    -0.93820
Zr1108     Zr  0.96829357  0.97343773  0.55601185     2.64680
O1109       O  0.92826298  0.93171291  0.55978173    -0.98770
O1110       O  0.97222667  0.97853575  0.62372692    -0.80830
O1111       O  0.94529581  0.99545783  0.50137288    -0.84190
O1112       O  0.98951701  0.95254201  0.50019958    -2.18900
O1113       O  0.58165380  0.51696032  0.43077316    -0.67580
O1114       O  0.59182504  0.97013091  0.45996698    -0.52140
C1115       C  0.59924125  0.99269889  0.43747775     0.71190
O1116       O  0.51229620  0.59213496  0.56863086    -0.60490
O1117       O  0.96230992  0.59760414  0.54366071    -0.52460
C1118       C  0.98659437  0.60789163  0.56261885     0.72990
O1119       O  0.58267501  0.51362962  0.57482705    -0.71880
O1120       O  0.59236005  0.96856483  0.54113480    -0.50560
C1121       C  0.59995370  0.98960998  0.56617713     0.74380
O1122       O  0.50847035  0.59284093  0.43634249    -0.67210
O1123       O  0.96003879  0.59788072  0.46385606    -0.54410
C1124       C  0.98287483  0.60810626  0.44362068     0.72540
Zr1125     Zr  0.53192664  0.54128334  0.44770039     2.77540
O1126       O  0.57243366  0.58260259  0.44494532    -0.97960
O1127       O  0.52572279  0.53912681  0.37999519    -0.78780
Zr1128     Zr  0.53319409  0.53930892  0.55793597     2.70070
O1129       O  0.57615374  0.57772694  0.56563133    -0.80030
O1130       O  0.52640179  0.53646650  0.62518807    -0.99110
Zr1131     Zr  0.95550257  0.55108418  0.50317433     2.21500
Zr1132     Zr  0.54543599  0.96347173  0.49997703     2.11130
O1133       O  0.55540309  0.51940144  0.50218367    -2.47800
O1134       O  0.51101359  0.56221444  0.50351317    -0.79820
O1135       O  0.52259827  0.98582108  0.44442024    -0.72020
O1136       O  0.97790545  0.52888073  0.55909574    -2.32970
O1137       O  0.97671413  0.53076578  0.44619785    -2.29180
O1138       O  0.52376799  0.98387801  0.55687636    -0.73780
H1139       H  0.98539615  0.92997892  0.49966957     0.78220
H1140       H  0.96853626  0.53819706  0.58106916     0.79310
H1141       H  0.57794546  0.52380668  0.50255728     0.81530
H1142       H  0.96676908  0.54064014  0.42473355     0.79140
H1143       H  0.95569049  0.99422579  0.63035188     0.42180
H1144       H  0.53267001  0.51450081  0.63167539     0.41150
H1145       H  0.58033059  0.58501585  0.53994932     0.40820
H1146       H  0.58962646  0.57554535  0.46218004     0.38760
H1147       H  0.53165666  0.51711715  0.37307929     0.41890
H1148       H  0.96176024  0.99998448  0.37182843     0.36670
H1149       H  0.91855834  0.93292749  0.46790797     0.42790
H1150       H  0.93498295  0.91516605  0.54175125     0.39200
H1151       H  0.58150286  0.58050661  0.41970200     0.44120
H1152       H  0.95377181  0.96371487  0.36863634     0.42850
H1153       H  0.93166656  0.92207296  0.58465870     0.42980
H1154       H  0.54372022  0.54991100  0.63578134     0.43340
C1155       C  0.99356225  0.72759204  0.36861631     0.02890
C1156       C  0.00124541  0.75616427  0.38755397    -0.13260
C1157       C  0.00653009  0.78412351  0.36764486     0.00390
C1158       C  0.00388663  0.78380164  0.32865093    -0.11780
C1159       C  0.99625381  0.75571543  0.30950917     0.02880
C1160       C  0.99130996  0.72763223  0.32929794    -0.11210
H1161       H  0.00184954  0.75710203  0.41780432     0.08480
H1162       H  0.00696635  0.80567638  0.31330772     0.06010
H1163       H  0.98588415  0.70591310  0.31401050     0.05850
C1164       C  0.72030510  0.50366010  0.36363210     0.02890
C1165       C  0.74918578  0.50850730  0.38343558    -0.13260
C1166       C  0.77710552  0.51637131  0.36417886     0.00390
C1167       C  0.77556408  0.51959373  0.32507679    -0.11780
C1168       C  0.74725426  0.51399736  0.30531291     0.02880
C1169       C  0.71986847  0.50584818  0.32443478    -0.11210
H1170       H  0.74980799  0.50648058  0.41357446     0.08480
H1171       H  0.79649568  0.52643718  0.30981400     0.06010
H1172       H  0.69794521  0.50170217  0.30875810     0.05850
C1173       C  0.72299758  0.50191240  0.63975293     0.02890
C1174       C  0.75025724  0.50699535  0.61821073    -0.13260
C1175       C  0.77929210  0.51622691  0.63533572     0.00390
C1176       C  0.78088000  0.52068070  0.67427053    -0.11780
C1177       C  0.75416618  0.51508031  0.69595781     0.02880
C1178       C  0.72566232  0.50527948  0.67886214    -0.11210
H1179       H  0.74885241  0.50466921  0.58808344     0.08480
H1180       H  0.80312538  0.52757802  0.68778795     0.06010
H1181       H  0.70546517  0.50039133  0.69630762     0.05850
C1182       C  0.99092391  0.73095567  0.63387067     0.02890
C1183       C  0.00050735  0.75825903  0.61478075    -0.13260
C1184       C  0.00412072  0.78754200  0.63366526     0.00390
C1185       C  0.99885875  0.78880179  0.67234459    -0.11780
C1186       C  0.99009238  0.76148373  0.69164247     0.02880
C1187       C  0.98561730  0.73272144  0.67238161    -0.11210
H1188       H  0.00521645  0.75652487  0.58518124     0.08480
H1189       H  0.00125053  0.81105964  0.68756878     0.06010
H1190       H  0.97907116  0.71153550  0.68748178     0.05850
C1191       C  0.74886326  0.99125971  0.13182374     0.02890
C1192       C  0.75096161  0.99126584  0.17097967    -0.13260
C1193       C  0.74436535  0.51891818  0.19141700     0.00390
C1194       C  0.73614210  0.54697008  0.17281054    -0.11780
C1195       C  0.73440016  0.54755578  0.13355969     0.02880
C1196       C  0.74057914  0.51947048  0.11337374    -0.11210
H1197       H  0.75675856  0.96952027  0.18560121     0.08480
H1198       H  0.73169002  0.56839926  0.18888016     0.06010
H1199       H  0.73882623  0.51948409  0.08314681     0.05850
O1200       O  0.72804469  0.85083554  0.93092261    -0.75530
O1201       O  0.77612660  0.85797434  0.96020426    -0.54440
C1202       C  0.75332042  0.86710532  0.93821441     0.78200
O1203       O  0.65562553  0.77855891  0.07178580    -0.60130
O1204       O  0.64509168  0.73216409  0.04056054    -0.53160
C1205       C  0.63787801  0.75447647  0.06381681     0.70210
O1206       O  0.72913942  0.85477154  0.06482902    -0.74690
O1207       O  0.77847113  0.85841663  0.03942600    -0.55250
C1208       C  0.75515791  0.86961563  0.05834112     0.76220
O1209       O  0.65124933  0.77767802  0.93132671    -0.59830
O1210       O  0.64477821  0.72994187  0.96036051    -0.52950
C1211       C  0.63519539  0.75262311  0.93908054     0.72810
Zr1212     Zr  0.70343730  0.80039431  0.94498459     2.54710
O1213       O  0.66350701  0.84209424  0.94127608    -0.80400
O1214       O  0.70592550  0.79563638  0.87728072    -0.93820
Zr1215     Zr  0.70574193  0.80257140  0.05526004     2.64680
O1216       O  0.66556494  0.84403295  0.05981970    -0.98770
O1217       O  0.71263049  0.80089531  0.12288218    -0.80830
O1218       O  0.72683329  0.82294435  0.99961385    -0.84190
O1219       O  0.68183581  0.78064962  0.00064830    -2.18900
O1220       O  0.74249455  0.68284679  0.93111318    -0.67580
O1221       O  0.69605188  0.67659815  0.96256777    -0.52140
C1222       C  0.71784929  0.66685534  0.94030614     0.71190
O1223       O  0.82006573  0.75851489  0.07043813    -0.60490
O1224       O  0.82968202  0.80468271  0.03980575    -0.52460
C1225       C  0.83752374  0.78258287  0.06295893     0.72990
O1226       O  0.74519889  0.68448399  0.07037422    -0.71880
O1227       O  0.69640233  0.67862207  0.04199994    -0.50560
C1228       C  0.71957841  0.66885315  0.06293456     0.74380
O1229       O  0.81795333  0.75670800  0.92955699    -0.67210
O1230       O  0.82818094  0.80363949  0.95972284    -0.54410
C1231       C  0.83549665  0.78105750  0.93685881     0.72760
Zr1232     Zr  0.76733548  0.73370917  0.94535292     2.77540
O1233       O  0.80854289  0.69318846  0.94209715    -0.97960
O1234       O  0.76177732  0.73686650  0.87769997    -0.78780
Zr1235     Zr  0.76886568  0.73543302  0.05606698     2.70070
O1236       O  0.80923555  0.69443736  0.06292150    -0.80030
O1237       O  0.76416425  0.74147190  0.12342006    -0.99110
Zr1238     Zr  0.78228762  0.81112366  0.99983355     2.21500
Zr1239     Zr  0.69130038  0.72463132  0.00110331     2.11130
O1240       O  0.74672563  0.71283926  0.00096070    -2.47800
O1241       O  0.79109023  0.75516512  0.00048568    -0.79820
O1242       O  0.71213690  0.74480068  0.94421149    -0.72020
O1243       O  0.76076940  0.79108065  0.05653128    -2.32970
O1244       O  0.75864919  0.78921276  0.94386861    -2.29180
O1245       O  0.71392189  0.74687736  0.05725585    -0.73780
H1246       H  0.65937383  0.78530993  0.00084888     0.78220
H1247       H  0.77093907  0.80079959  0.07817071     0.79310
H1248       H  0.75054917  0.69023879  0.00116539     0.81530
H1249       H  0.76807109  0.79828475  0.92195550     0.79140
H1250       H  0.72967119  0.81651649  0.12866468     0.42180
H1251       H  0.74280192  0.73299593  0.12896831     0.41150
H1252       H  0.81308080  0.68704918  0.03705847     0.40820
H1253       H  0.80204544  0.67667071  0.95997213     0.38760
H1254       H  0.73913033  0.73185690  0.87240714     0.41890
H1255       H  0.72646088  0.80548483  0.87074396     0.36670
H1256       H  0.66238438  0.85059741  0.96709504     0.42790
H1257       H  0.64826512  0.83731076  0.04237484     0.39200
H1258       H  0.80562634  0.68315165  0.91715639     0.44120
H1259       H  0.68966946  0.81073244  0.86792377     0.42850
H1260       H  0.65654915  0.84166488  0.08501449     0.42980
H1261       H  0.77910161  0.72558630  0.13391584     0.43340
C1262       C  0.95973560  0.77189668  0.13844172     0.02890
C1263       C  0.96107742  0.76946296  0.17769218    -0.13260
C1264       C  0.98942155  0.76156581  0.19611621     0.00390
C1265       C  0.51699927  0.75711850  0.17583391    -0.11780
C1266       C  0.51669175  0.76061969  0.13689003     0.02880
C1267       C  0.98787279  0.76757393  0.11812123    -0.11210
H1268       H  0.94000587  0.77351035  0.19406362     0.08480
H1269       H  0.53893343  0.75115303  0.19050794     0.06010
H1270       H  0.98743130  0.76959101  0.08798169     0.05850
C1271       C  0.75292074  0.99022369  0.86744175     0.02890
C1272       C  0.75686054  0.99165976  0.82869910    -0.13260
C1273       C  0.75235952  0.52019548  0.80973373     0.00390
C1274       C  0.74364734  0.54762759  0.82945427    -0.11780
C1275       C  0.73927349  0.54672525  0.86840752     0.02880
C1276       C  0.74435024  0.51778456  0.88724070    -0.11210
H1277       H  0.76281756  0.97029023  0.81319233     0.08480
H1278       H  0.74038412  0.56962382  0.81437610     0.06010
H1279       H  0.74024354  0.51623136  0.91695441     0.05850
C1280       C  0.95636721  0.77295739  0.86273959     0.02890
C1281       C  0.98456025  0.76761221  0.88344399    -0.13260
C1282       C  0.51332152  0.76118559  0.86520740     0.00390
C1283       C  0.51353906  0.76034999  0.82595362    -0.11780
C1284       C  0.98566057  0.76579883  0.80526158     0.02880
C1285       C  0.95733443  0.77233239  0.82350744    -0.11210
H1286       H  0.98389040  0.76734894  0.91366946     0.08480
H1287       H  0.53549114  0.75591386  0.81137709     0.06010
H1288       H  0.93593850  0.77671064  0.80704911     0.05850
C1289       C  0.73619465  0.61137148  0.94293953    -0.13580
C1290       C  0.71672395  0.63417158  0.92576211     0.08560
C1291       C  0.70261758  0.62732424  0.89091000    -0.13580
C1292       C  0.70880570  0.59833241  0.87290297    -0.13580
C1293       C  0.72965244  0.57595483  0.88922114     0.08560
C1294       C  0.74255816  0.58254058  0.92495237    -0.13580
H1295       H  0.74801638  0.61669764  0.96938345     0.12550
H1296       H  0.68812348  0.64497453  0.87687144     0.12550
H1297       H  0.69794799  0.59382813  0.84574197     0.12550
H1298       H  0.75899236  0.56619850  0.93820479     0.12550
C1299       C  0.73329045  0.90554515  0.89067349    -0.13580
C1300       C  0.75511260  0.89854894  0.91973831     0.08560
C1301       C  0.77678354  0.92227320  0.93151822    -0.13580
C1302       C  0.77610615  0.95244063  0.91491807    -0.13580
C1303       C  0.75411297  0.95901791  0.88601252     0.08560
C1304       C  0.73290880  0.93527887  0.87400582    -0.13580
H1305       H  0.71622115  0.88801058  0.88070134     0.12550
H1306       H  0.79374926  0.91773078  0.95391601     0.12550
H1307       H  0.79278697  0.97052731  0.92439351     0.12550
H1308       H  0.71571465  0.93991851  0.85184228     0.12550
C1309       C  0.89531257  0.79928195  0.06921767    -0.13580
C1310       C  0.86856361  0.78352960  0.08312292     0.08560
C1311       C  0.87203596  0.76543731  0.11576494    -0.13580
C1312       C  0.90146927  0.76198008  0.13327089    -0.13580
C1313       C  0.92850443  0.77698743  0.11927416     0.08560
C1314       C  0.92514494  0.79597109  0.08716353    -0.13580
H1315       H  0.89338103  0.81321740  0.04399649     0.12550
H1316       H  0.85197481  0.75306130  0.12748289     0.12550
H1317       H  0.90309716  0.74665369  0.15735746     0.12550
H1318       H  0.94552180  0.80808518  0.07588136     0.12550
C1319       C  0.60304113  0.77239898  0.11508935    -0.13580
C1320       C  0.60687787  0.75380623  0.08268907     0.08560
C1321       C  0.58042734  0.73737471  0.06757488    -0.13580
C1322       C  0.55064977  0.73987909  0.08455399    -0.13580
C1323       C  0.54716558  0.75854663  0.11699428     0.08560
C1324       C  0.57364492  0.77478466  0.13189154    -0.13580
H1325       H  0.62282290  0.78547274  0.12746932     0.12550
H1326       H  0.58260997  0.72323857  0.04233604     0.12550
H1327       H  0.53052091  0.72701201  0.07270488     0.12550
H1328       H  0.57154820  0.78961067  0.15661443     0.12550
C1329       C  0.89277476  0.79848467  0.93152854    -0.13580
C1330       C  0.86614073  0.78195728  0.91713490     0.08560
C1331       C  0.86941691  0.76355800  0.88446504    -0.13580
C1332       C  0.89857524  0.76101235  0.86705087    -0.13580
C1333       C  0.92541960  0.77692765  0.88156278     0.08560
C1334       C  0.92228602  0.79584694  0.91394385    -0.13580
H1335       H  0.89101242  0.81260362  0.95683781     0.12550
H1336       H  0.84941992  0.75052376  0.87252569     0.12550
H1337       H  0.90024226  0.74583223  0.84258613     0.12550
H1338       H  0.94261006  0.80851602  0.92561470     0.12550
C1339       C  0.59527486  0.73085043  0.89342591    -0.13580
C1340       C  0.60284653  0.75116001  0.92342852     0.08560
C1341       C  0.58027514  0.77308371  0.93595290    -0.13580
C1342       C  0.55067460  0.77541509  0.91799261    -0.13580
C1343       C  0.54332081  0.75611214  0.88681691     0.08560
C1344       C  0.56570351  0.73333773  0.87517068    -0.13580
H1345       H  0.61264091  0.71402648  0.88325649     0.12550
H1346       H  0.58599065  0.78909520  0.95897182     0.12550
H1347       H  0.53414730  0.79335622  0.92742220     0.12550
H1348       H  0.56055216  0.71783782  0.85153851     0.12550
C1349       C  0.74117388  0.61464725  0.06451020    -0.13580
C1350       C  0.71879000  0.63646723  0.07769687     0.08560
C1351       C  0.70006153  0.62850262  0.10824535    -0.13580
C1352       C  0.70450888  0.59924591  0.12611940    -0.13580
C1353       C  0.72762149  0.57763398  0.11346866     0.08560
C1354       C  0.74544105  0.58549324  0.08202213    -0.13580
H1355       H  0.75626613  0.62074573  0.04140243     0.12550
H1356       H  0.68310265  0.64537905  0.11919081     0.12550
H1357       H  0.69026718  0.59371624  0.15012573     0.12550
H1358       H  0.76373655  0.56968414  0.07191247     0.12550
C1359       C  0.77858463  0.94064264  0.11797285    -0.13580
C1360       C  0.75306605  0.96135130  0.11030401     0.08560
C1361       C  0.73028186  0.95259058  0.08303567    -0.13580
C1362       C  0.73210475  0.92320346  0.06499072    -0.13580
C1363       C  0.75704132  0.90219700  0.07327542     0.08560
C1364       C  0.78072475  0.91130489  0.09927086    -0.13580
H1365       H  0.79650836  0.94695980  0.13881622     0.12550
H1366       H  0.71022154  0.96789432  0.07686533     0.12550
H1367       H  0.71345945  0.91640398  0.04523141     0.12550
H1368       H  0.79988166  0.89516191  0.10638025     0.12550
C1369       C  0.98708134  0.76284521  0.73156281    -0.13510
C1370       C  0.98604900  0.76428572  0.76513593    -0.15070
C1371       C  0.75572166  0.51885029  0.73600838    -0.13510
C1372       C  0.75500949  0.52058241  0.76964878    -0.15070
C1373       C  0.74631651  0.51663325  0.26523408    -0.13510
C1374       C  0.74553376  0.51820048  0.23161718    -0.15070
C1375       C  0.99280675  0.75623724  0.26951349    -0.13510
C1376       C  0.99055657  0.75831761  0.23604764    -0.15070
C1377       C  0.53514608  0.87016565  0.61186762    -0.13580
C1378       C  0.52116366  0.87531878  0.57670210     0.08560
C1379       C  0.00380504  0.85090720  0.55903954    -0.13580
C1380       C  0.99931092  0.82197573  0.57695159    -0.13580
C1381       C  0.01215605  0.81692452  0.61295242     0.08560
C1382       C  0.53093239  0.84105894  0.62974822    -0.13580
H1383       H  0.54816216  0.88905958  0.62608125     0.12550
H1384       H  0.99227998  0.85488118  0.53218120     0.12550
H1385       H  0.98432265  0.80426786  0.56336629     0.12550
H1386       H  0.54168118  0.83779105  0.65712566     0.12550
C1387       C  0.95900589  0.65252201  0.59589857    -0.13580
C1388       C  0.98605113  0.64030068  0.57843303     0.08560
C1389       C  0.51402929  0.65856933  0.57814922    -0.13580
C1390       C  0.51518779  0.68834209  0.59540998    -0.13580
C1391       C  0.98859927  0.70017185  0.61396610     0.08560
C1392       C  0.96041949  0.68216386  0.61404876    -0.13580
H1393       H  0.93728483  0.63870844  0.59664124     0.12550
H1394       H  0.53516259  0.64964564  0.56473349     0.12550
H1395       H  0.53714743  0.70181918  0.59516808     0.12550
H1396       H  0.93963837  0.69103322  0.62820682     0.12550
C1397       C  0.98317011  0.83461805  0.38809957    -0.13580
C1398       C  0.00964361  0.81474916  0.38735001     0.08560
C1399       C  0.53847407  0.82488621  0.40394626    -0.13580
C1400       C  0.54076169  0.85518300  0.42067198    -0.13580
C1401       C  0.51420331  0.87546755  0.42074079     0.08560
C1402       C  0.98533786  0.86448277  0.40462131    -0.13580
H1403       H  0.96074890  0.82701453  0.37558024     0.12550
H1404       H  0.55916280  0.80961333  0.40342848     0.12550
H1405       H  0.56318581  0.86282309  0.43305801     0.12550
H1406       H  0.96408589  0.87897652  0.40464872     0.12550
C1407       C  0.50658448  0.69148702  0.42202887    -0.13580
C1408       C  0.98810933  0.69790561  0.38988814     0.08560
C1409       C  0.96522437  0.67534174  0.37787116    -0.13580
C1410       C  0.96177875  0.64660059  0.39686267    -0.13580
C1411       C  0.98105461  0.64014032  0.42815027     0.08560
C1412       C  0.50313378  0.66287119  0.44084453    -0.13580
H1413       H  0.52474703  0.70796269  0.43178008     0.12550
H1414       H  0.95028388  0.67969267  0.35354047     0.12550
H1415       H  0.94510760  0.62893129  0.38625838     0.12550
H1416       H  0.51864412  0.65787679  0.46454970     0.12550
C1417       C  0.68792497  0.97747641  0.58840684    -0.13580
C1418       C  0.69129604  0.49526315  0.62185953     0.08560
C1419       C  0.66384735  0.50811609  0.63787640    -0.13580
C1420       C  0.63419775  0.50414617  0.62077849    -0.13580
C1421       C  0.63086722  0.98776439  0.58657478     0.08560
C1422       C  0.65792279  0.97375860  0.57088146    -0.13580
H1423       H  0.70846632  0.96685373  0.57548922     0.12550
H1424       H  0.66523569  0.52254766  0.66300956     0.12550
H1425       H  0.61387358  0.51516791  0.63379546     0.12550
H1426       H  0.65612533  0.96118113  0.54441171     0.12550
C1427       C  0.85779169  0.54732389  0.59934072    -0.13580
C1428       C  0.86744344  0.52175721  0.57686012     0.08560
C1429       C  0.84693742  0.49571970  0.57145917    -0.13580
C1430       C  0.81756422  0.49478544  0.58900596    -0.13580
C1431       C  0.80848176  0.51952357  0.61305486     0.08560
C1432       C  0.82865830  0.54602600  0.61773083    -0.13580
H1433       H  0.87336779  0.56754228  0.60398562     0.12550
H1434       H  0.85395296  0.97579439  0.55411412     0.12550
H1435       H  0.80256461  0.97403452  0.58515098     0.12550
H1436       H  0.82208624  0.56542876  0.63609188     0.12550
C1437       C  0.63437252  0.51410732  0.38855760    -0.13580
C1438       C  0.63015450  0.99251924  0.41789260     0.08560
C1439       C  0.65621608  0.97381429  0.42940037    -0.13580
C1440       C  0.68592062  0.97727190  0.41219594    -0.13580
C1441       C  0.68974859  0.49924597  0.38312970     0.08560
C1442       C  0.66361102  0.51751308  0.37170339    -0.13580
H1443       H  0.61506046  0.52902660  0.37874123     0.12550
H1444       H  0.65385433  0.95720451  0.45211707     0.12550
H1445       H  0.70576527  0.96278839  0.42140354     0.12550
H1446       H  0.66588165  0.53495428  0.34982285     0.12550
C1447       C  0.86526735  0.51070309  0.38468098    -0.13580
C1448       C  0.86849097  0.52554233  0.41982488     0.08560
C1449       C  0.84139640  0.53852166  0.43656836    -0.13580
C1450       C  0.81144779  0.53570379  0.41874694    -0.13580
C1451       C  0.80833527  0.52010412  0.38387610     0.08560
C1452       C  0.83570109  0.50785412  0.36713142    -0.13580
H1453       H  0.88567487  0.50048263  0.37097482     0.12550
H1454       H  0.84319541  0.54978923  0.46383230     0.12550
H1455       H  0.79080578  0.54565041  0.43217712     0.12550
H1456       H  0.83422849  0.49524092  0.34066961     0.12550
loop_ 
_geom_bond_atom_site_label_1 
_geom_bond_atom_site_label_2 
_geom_bond_distance 
_geom_bond_site_symmetry_2 
_ccdc_geom_bond_type 
O1          Zr13   2.414       .  S
O1          C367   1.284       .  A
O2          Zr39   2.446       .  S
O2            C3   1.290       .  A
C3          O365   1.284   1_545  A
C3          C356   1.479       .  S
O4          Zr16   2.434       .  S
O4          C734   1.286       .  A
O5          Zr40   2.434       .  S
O5            C6   1.288       .  A
C6          O732   1.286   1_455  A
C6          C286   1.462       .  S
O7          Zr16   2.438       .  S
O7          C373   1.288       .  A
O8          Zr39   2.433       .  S
O8            C9   1.288       .  A
C9          O371   1.288   1_545  A
C9          C336   1.473       .  S
O10         Zr13   2.406       .  S
O10         C740   1.283       .  A
O11         Zr40   2.458       .  S
O11          C12   1.292       .  A
C12         O738   1.283   1_455  A
C12         C309   1.484       .  S
Zr13         O14   2.434       .  S
Zr13         O15   2.435       .  S
Zr13         O19   2.360       .  S
Zr13         O20   2.362       .  S
Zr13        O771   2.368       .  S
Zr13        O409   2.361       .  S
O14          H57   0.990       .  S
O15          H56   0.990       .  S
O15          H60   0.990       .  S
Zr16         O17   2.437       .  S
Zr16         O18   2.435       .  S
Zr16         O20   2.366       .  S
Zr16         O19   2.364       .  S
Zr16        O408   2.369       .  S
Zr16        O774   2.373       .  S
O17          H58   0.990       .  S
O17          H61   0.990       .  S
O18          H51   0.990       .  S
O19        Zr403   2.380       .  S
O20        Zr768   2.396       .  S
O20          H47   0.965       .  S
O21         Zr33   2.414       .  S
O21         C387   1.284   1_545  A
O22         Zr40   2.457       .  S
O22          C23   1.292       .  A
C23         O385   1.284       .  A
C23         C346   1.488       .  S
O24         Zr36   2.422       .  S
O24         C754   1.285   1_455  A
O25         Zr39   2.440       .  S
O25          C26   1.289       .  A
C26         O752   1.285       .  A
C26         C296   1.473       .  S
O27         Zr36   2.417       .  S
O27         C393   1.285   1_545  A
O28         Zr40   2.451       .  S
O28          C29   1.291       .  A
C29         O391   1.285       .  A
C29         C329   1.483       .  S
O30         Zr33   2.420       .  S
O30         C760   1.284   1_455  A
O31         Zr39   2.440       .  S
O31          C32   1.289       .  A
C32         O758   1.284       .  A
C32         C319   1.464       .  S
Zr33         O34   2.437       .  S
Zr33         O35   2.435       .  S
Zr33         O41   2.366       .  S
Zr33         O42   2.361       .  S
Zr33        O773   2.363   1_455  S
Zr33        O407   2.368   1_545  S
O34          H54   0.990       .  S
O34          H59   0.990       .  S
O35          H55   0.990       .  S
Zr36         O37   2.434       .  S
Zr36         O38   2.434       .  S
Zr36         O42   2.360       .  S
Zr36         O41   2.366       .  S
Zr36        O410   2.366   1_545  S
Zr36        O772   2.367   1_455  S
O37          H53   0.990       .  S
O38          H52   0.990       .  S
O38          H62   0.990       .  S
Zr39         O44   2.396       .  S
Zr39         O45   2.392       .  S
Zr39        O383   2.380   1_545  S
Zr39        O770   2.381       .  S
Zr40         O43   2.395       .  S
Zr40         O46   2.399       .  S
Zr40        O748   2.396   1_455  S
Zr40        O405   2.391       .  S
O41        Zr404   2.391   1_545  S
O41          H49   0.966       .  S
O42        Zr767   2.381   1_455  S
O43        Zr741   2.368   1_455  S
O43        Zr397   2.368       .  S
O44        Zr380   2.369   1_545  S
O44        Zr764   2.367       .  S
O44          H48   0.966       .  S
O45        Zr377   2.361   1_545  S
O45        Zr761   2.363       .  S
O45          H50   0.966       .  S
O46        Zr744   2.373   1_455  S
O46        Zr400   2.366       .  S
C63         C316   1.488       .  S
C63          C64   1.410       .  A
C63          C68   1.409       .  A
C64          C65   1.400       .  A
C64          H69   1.083       .  S
C65         C306   1.469       .  S
C65          C66   1.399       .  A
C66          C67   1.396       .  A
C66          H70   1.085       .  S
C67          C68   1.400       .  A
C67         C283   1.437       .  S
C68          H71   1.083       .  S
C72         C349   1.485   1_545  S
C72          C73   1.410       .  A
C72          C77   1.407       .  A
C73          C74   1.412       .  A
C73          H78   1.083       .  S
C74         C359   1.488       .  S
C74          C75   1.408       .  A
C75          C76   1.393       .  A
C75          H79   1.084       .  S
C76          C77   1.394       .  A
C76         C281   1.440       .  S
C77          H80   1.084       .  S
C81         C326   1.494   1_545  S
C81          C82   1.410       .  A
C81          C86   1.409       .  A
C82          C83   1.410       .  A
C82          H87   1.083       .  S
C83         C339   1.482       .  S
C83          C84   1.405       .  A
C84          C85   1.397       .  A
C84          H88   1.084       .  S
C85          C86   1.397       .  A
C85         C279   1.442       .  S
C86          H89   1.083       .  S
C90         C299   1.476       .  S
C90          C91   1.404       .  A
C90          C95   1.402       .  A
C91          C92   1.407       .  A
C91          H96   1.083       .  S
C92         C289   1.489       .  S
C92          C93   1.407       .  A
C93          C94   1.399       .  A
C93          H97   1.083       .  S
C94          C95   1.399       .  A
C94         C277   1.438       .  S
C95          H98   1.084       .  S
C99         C268   1.483       .  S
C99         C100   1.403       .  A
C99         C468   1.405       .  A
C100        C465   1.400       .  A
C100        H105   1.084       .  S
C101        C102   1.401       .  A
C101        C464   1.400   1_545  A
C101        C282   1.440       .  S
C102        C103   1.406       .  A
C102        H106   1.084       .  S
C103        C261   1.487       .  S
C103        C104   1.407       .  A
C104        C463   1.405   1_545  A
C104        H107   1.083       .  S
O108       Zr120   2.421       .  S
O108        C110   1.286       .  A
O109       Zr146   2.451       .  S
O109        C110   1.292       .  A
C110        C208   1.487       .  S
O111       Zr123   2.421       .  S
O111        C113   1.285       .  A
O112       Zr147   2.441       .  S
O112        C113   1.290       .  A
C113        C228   1.479       .  S
O114       Zr123   2.425       .  S
O114        C116   1.285       .  A
O115       Zr146   2.441   1_554  S
O115        C116   1.289       .  A
C116        C271   1.469       .  S
O117       Zr120   2.433       .  S
O117        C119   1.286       .  A
O118       Zr147   2.432   1_556  S
O118        C119   1.287       .  A
C119        C248   1.464       .  S
Zr120       O121   2.434       .  S
Zr120       O122   2.435       .  S
Zr120       O126   2.365       .  S
Zr120       O127   2.361   1_556  S
Zr120       O150   2.369       .  S
Zr120       O152   2.371       .  S
O121        H164   0.990       .  S
O122        H163   0.990       .  S
O122        H167   0.990       .  S
Zr123       O124   2.437       .  S
Zr123       O125   2.435       .  S
Zr123       O127   2.363       .  S
Zr123       O126   2.362   1_554  S
Zr123       O151   2.365       .  S
Zr123       O153   2.371       .  S
O124        H165   0.990       .  S
O124        H168   0.990       .  S
O125        H158   0.990       .  S
O126       Zr146   2.385       .  S
O127       Zr147   2.392       .  S
O127        H154   0.965       .  S
O128       Zr140   2.427       .  S
O128        C130   1.284       .  A
O129       Zr147   2.448   1_556  S
O129        C130   1.290       .  A
C130        C198   1.467       .  S
O131       Zr143   2.407       .  S
O131        C133   1.283       .  A
O132       Zr146   2.451   1_554  S
O132        C133   1.291       .  A
C133        C218   1.481       .  S
O134       Zr143   2.425       .  S
O134        C136   1.285       .  A
O135       Zr147   2.445       .  S
O135        C136   1.289       .  A
C136        C258   1.467       .  S
O137       Zr140   2.415       .  S
O137        C139   1.284       .  A
O138       Zr146   2.445       .  S
O138        C139   1.290       .  A
C139        C238   1.481       .  S
Zr140       O141   2.437       .  S
Zr140       O142   2.434       .  S
Zr140       O148   2.361   1_556  S
Zr140       O149   2.369   1_556  S
Zr140       O152   2.366       .  S
Zr140       O150   2.368       .  S
O141        H161   0.990       .  S
O141        H166   0.990       .  S
O142        H162   0.990       .  S
Zr143       O144   2.433       .  S
Zr143       O145   2.434       .  S
Zr143       O149   2.369       .  S
Zr143       O148   2.359       .  S
Zr143       O153   2.362       .  S
Zr143       O151   2.367       .  S
O144        H160   0.990       .  S
O145        H159   0.990       .  S
O145        H169   0.990       .  S
Zr146       O149   2.385   1_556  S
Zr146       O151   2.396   1_556  S
Zr146       O152   2.398       .  S
Zr147       O148   2.384       .  S
Zr147       O150   2.393   1_554  S
Zr147       O153   2.392       .  S
O148        H156   0.965       .  S
O151        H155   0.966       .  S
O152        H157   0.966       .  S
C170        C221   1.488       .  S
C170        C171   1.410       .  A
C170        C175   1.411       .  A
C171        C172   1.395       .  A
C171        H176   1.084       .  S
C172        C901   1.391       .  A
C172        C284   1.437       .  S
C173        C174   1.403       .  A
C173        C900   1.391   1_455  A
C173        H177   1.085       .  S
C174        C231   1.479       .  S
C174        C903   1.408   1_455  A
C175        C902   1.408       .  A
C175        H178   1.083       .  S
C179        C211   1.478       .  S
C179        C180   1.402       .  A
C179        C548   1.405       .  A
C180        C545   1.396       .  A
C180        H185   1.085       .  S
C181        C182   1.401       .  A
C181        C544   1.396   1_545  A
C181        C280   1.442       .  S
C182        C183   1.411       .  A
C182        H186   1.083       .  S
C183        C201   1.493       .  S
C183        C184   1.412       .  A
C184        C543   1.405   1_545  A
C184        H187   1.083       .  S
C188        C241   1.485       .  S
C188        C189   1.407       .  A
C188        C193   1.406       .  A
C189        C918   1.410       .  A
C189        H194   1.083       .  S
C190        C251   1.485       .  S
C190        C191   1.406       .  A
C190        C917   1.410   1_455  A
C191        C920   1.397   1_455  A
C191        H195   1.084       .  S
C192        C193   1.395       .  A
C192        C919   1.397       .  A
C192        C278   1.438       .  S
C193        H196   1.084       .  S
C197        C198   1.402       .  A
C197        C202   1.397       .  A
C197        H203   1.083       .  S
C198        C199   1.400       .  A
C199        C200   1.402       .  A
C199        H204   1.083       .  S
C200        C201   1.411       .  A
C200        H205   1.082       .  S
C201        C202   1.406       .  A
C202        H206   1.082       .  S
C207        C208   1.409       .  A
C207        C212   1.391       .  A
C207        H213   1.083       .  S
C208        C209   1.408       .  A
C209        C210   1.407       .  A
C209        H214   1.083       .  S
C210        C211   1.406       .  A
C210        H215   1.083       .  S
C211        C212   1.398       .  A
C212        H216   1.084       .  S
C217        C218   1.406       .  A
C217        C222   1.408       .  A
C217        H223   1.083       .  S
C218        C219   1.406       .  A
C219        C220   1.386       .  A
C219        H224   1.083       .  S
C220        C221   1.402       .  A
C220        H225   1.083       .  S
C221        C222   1.411       .  A
C222        H226   1.082       .  S
C227        C228   1.405       .  A
C227        C232   1.388       .  A
C227        H233   1.083       .  S
C228        C229   1.407       .  A
C229        C230   1.405       .  A
C229        H234   1.083       .  S
C230        C231   1.406       .  A
C230        H235   1.083       .  S
C231        C232   1.401       .  A
C232        H236   1.083       .  S
C237        C238   1.406       .  A
C237        C242   1.405       .  A
C237        H243   1.083       .  S
C238        C239   1.406       .  A
C239        C240   1.389       .  A
C239        H244   1.083       .  S
C240        C241   1.402       .  A
C240        H245   1.083       .  S
C241        C242   1.409       .  A
C242        H246   1.083       .  S
C247        C248   1.399       .  A
C247        C252   1.400       .  A
C247        H253   1.083       .  S
C248        C249   1.401       .  A
C249        C250   1.395       .  A
C249        H254   1.084       .  S
C250        C251   1.405       .  A
C250        H255   1.083       .  S
C251        C252   1.410       .  A
C252        H256   1.083       .  S
C257        C258   1.401       .  A
C257        C262   1.393       .  A
C257        H263   1.084       .  S
C258        C259   1.401       .  A
C259        C260   1.404       .  A
C259        H264   1.083       .  S
C260        C261   1.410       .  A
C260        H265   1.083       .  S
C261        C262   1.405       .  A
C262        H266   1.083       .  S
C267        C268   1.408       .  A
C267        C272   1.403       .  A
C267        H273   1.083       .  S
C268        C269   1.403       .  A
C269        C270   1.393       .  A
C269        H274   1.083       .  S
C270        C271   1.402       .  A
C270        H275   1.084       .  S
C271        C272   1.402       .  A
C272        H276   1.083       .  S
C277        C278   1.205       .  T
C279        C280   1.207       .  T
C281        C282   1.206       .  T
C283        C284   1.204       .  T
C285        C286   1.399       .  A
C285        C290   1.400       .  A
C285        H291   1.083       .  S
C286       C1015   1.400       .  A
C287        C288   1.395       .  A
C287       C1014   1.400       .  A
C287        H292   1.084       .  S
C288        C289   1.407       .  A
C288        H293   1.082       .  S
C289       C1018   1.410       .  A
C290       C1017   1.410       .  A
C290        H294   1.082       .  S
C295        C296   1.404       .  A
C295        C300   1.402       .  A
C295        H301   1.083       .  S
C296       C1025   1.405       .  A
C297        C298   1.393       .  A
C297       C1024   1.405   1_455  A
C297        H302   1.084       .  S
C298       C1027   1.400   1_455  A
C298        H303   1.083       .  S
C299        C300   1.406       .  A
C299       C1026   1.400       .  A
C300        H304   1.083       .  S
C305        C306   1.394       .  A
C305        C310   1.387       .  A
C305        H311   1.084       .  S
C306       C1035   1.405       .  A
C307        C308   1.407       .  A
C307       C1034   1.405       .  A
C307        H312   1.083       .  S
C308        C309   1.407       .  A
C308        H313   1.083       .  S
C309       C1038   1.411   1_455  A
C310       C1037   1.411       .  A
C310        H314   1.083       .  S
C315        C320   1.394       .  A
C315       C1044   1.406   1_455  A
C315        H321   1.082       .  S
C316        C317   1.411       .  A
C316       C1043   1.406       .  A
C317        C318   1.401       .  A
C317        H322   1.082       .  S
C318        C319   1.400       .  A
C318        H323   1.083       .  S
C319       C1048   1.400       .  A
C320       C1047   1.400   1_455  A
C320        H324   1.084       .  S
C325        C330   1.408       .  A
C325        C690   1.412       .  A
C325        H331   1.082       .  S
C326        C327   1.405   1_565  A
C326        C689   1.412       .  A
C327        C328   1.389       .  A
C327        H332   1.082       .  S
C328        C693   1.405   1_545  A
C328        H333   1.084       .  S
C329        C330   1.406       .  A
C329        C692   1.405       .  A
C330        H334   1.083       .  S
C335        C336   1.403       .  A
C335        C340   1.402       .  A
C335        H341   1.083       .  S
C336        C337   1.404   1_545  A
C337        C338   1.396       .  A
C337        H706   1.083       .  S
C338        C339   1.403   1_565  A
C338        H707   1.083       .  S
C339        C340   1.408       .  A
C340        H344   1.083       .  S
H342        C701   1.083       .  S
H343        C702   1.083       .  S
C345        C350   1.387       .  A
C345        C710   1.408   1_545  A
C345        H351   1.083       .  S
C346        C347   1.408       .  A
C346        C709   1.408       .  A
C347        C348   1.410       .  A
C347        H352   1.083       .  S
C348        C713   1.409       .  A
C348        H353   1.083       .  S
C349        C350   1.400   1_565  A
C349        C712   1.409       .  A
C350        H354   1.083       .  S
C355        C356   1.404       .  A
C355        C360   1.388       .  A
C355        H361   1.084       .  S
C356        C357   1.406       .  A
C357        C358   1.407       .  A
C357        H362   1.083       .  S
C358        C359   1.410       .  A
C358        H363   1.083       .  S
C359        C360   1.404       .  A
C360        H364   1.083   1_545  S
O365       Zr377   2.414       .  S
O366       Zr403   2.446       .  S
O366        C367   1.290       .  A
C367        C720   1.479       .  S
O368       Zr380   2.434       .  S
O368       C1098   1.286       .  A
O369       Zr404   2.434       .  S
O369        C370   1.288       .  A
C370       O1096   1.286   1_455  A
C370        C650   1.462       .  S
O371       Zr380   2.438       .  S
O372       Zr403   2.433       .  S
O372        C373   1.288       .  A
C373        C700   1.473       .  S
O374       Zr377   2.406       .  S
O374       C1104   1.283       .  A
O375       Zr404   2.458       .  S
O375        C376   1.292       .  A
C376       O1102   1.283   1_455  A
C376        C673   1.484       .  S
Zr377       O378   2.434       .  S
Zr377       O379   2.435       .  S
Zr377       O383   2.360       .  S
Zr377       O384   2.362       .  S
Zr377      O1135   2.368       .  S
O378        H421   0.990       .  S
O379        H420   0.990       .  S
O379        H424   0.990       .  S
Zr380       O381   2.437       .  S
Zr380       O382   2.435       .  S
Zr380       O384   2.366       .  S
Zr380       O383   2.364       .  S
Zr380      O1138   2.373       .  S
O381        H422   0.990       .  S
O381        H425   0.990       .  S
O382        H415   0.990       .  S
O384      Zr1132   2.396       .  S
O384        H411   0.965       .  S
O385       Zr397   2.414       .  S
O386       Zr404   2.457       .  S
O386        C387   1.292       .  A
C387        C710   1.488       .  S
O388       Zr400   2.422       .  S
O388       C1118   1.285   1_455  A
O389       Zr403   2.440       .  S
O389        C390   1.289       .  A
C390       O1116   1.285       .  A
C390        C660   1.473       .  S
O391       Zr400   2.417       .  S
O392       Zr404   2.451       .  S
O392        C393   1.291       .  A
C393        C693   1.483       .  S
O394       Zr397   2.420       .  S
O394       C1124   1.284   1_455  A
O395       Zr403   2.440       .  S
O395        C396   1.289       .  A
C396       O1122   1.284       .  A
C396        C683   1.464       .  S
Zr397       O398   2.437       .  S
Zr397       O399   2.435       .  S
Zr397       O405   2.366       .  S
Zr397       O406   2.361       .  S
Zr397      O1137   2.363   1_455  S
O398        H418   0.990       .  S
O398        H423   0.990       .  S
O399        H419   0.990       .  S
Zr400       O401   2.434       .  S
Zr400       O402   2.434       .  S
Zr400       O406   2.360       .  S
Zr400       O405   2.366       .  S
Zr400      O1136   2.367   1_455  S
O401        H417   0.990       .  S
O402        H416   0.990       .  S
O402        H426   0.990       .  S
Zr403      O1134   2.381       .  S
Zr403       O408   2.396       .  S
Zr403       O409   2.392       .  S
Zr404      O1112   2.396   1_455  S
Zr404       O407   2.395       .  S
Zr404       O410   2.399       .  S
O405        H413   0.966       .  S
O406      Zr1131   2.381   1_455  S
O407      Zr1105   2.368   1_455  S
O408      Zr1128   2.367       .  S
O408        H412   0.966       .  S
O409      Zr1125   2.363       .  S
O409        H414   0.966       .  S
O410      Zr1108   2.373   1_455  S
C427        C680   1.488       .  S
C427        C428   1.410       .  A
C427        C432   1.409       .  A
C428        C429   1.400       .  A
C428        H433   1.083       .  S
C429        C670   1.469       .  S
C429        C430   1.399       .  A
C430        C431   1.396       .  A
C430        H434   1.085       .  S
C431        C432   1.400       .  A
C431        C647   1.437       .  S
C432        H435   1.083       .  S
C436        C713   1.485       .  S
C436        C437   1.410       .  A
C436        C441   1.407       .  A
C437        C438   1.412       .  A
C437        H442   1.083       .  S
C438        C723   1.488       .  S
C438        C439   1.408       .  A
C439        C440   1.393       .  A
C439        H443   1.084       .  S
C440        C441   1.394       .  A
C440        C645   1.440       .  S
C441        H444   1.084       .  S
C445        C690   1.494       .  S
C445        C446   1.410       .  A
C445        C450   1.409       .  A
C446        C447   1.410       .  A
C446        H451   1.083       .  S
C447        C703   1.482       .  S
C447        C448   1.405       .  A
C448        C449   1.397       .  A
C448        H452   1.084       .  S
C449        C450   1.397       .  A
C449        C643   1.442       .  S
C450        H453   1.083       .  S
C454        C663   1.476       .  S
C454        C455   1.404       .  A
C454        C459   1.402       .  A
C455        C456   1.407       .  A
C455        H460   1.083       .  S
C456        C653   1.489       .  S
C456        C457   1.407       .  A
C457        C458   1.399       .  A
C457        H461   1.083       .  S
C458        C459   1.399       .  A
C458        C641   1.438       .  S
C459        H462   1.084       .  S
C463        C632   1.483       .  S
C463        C464   1.403       .  A
C464        H469   1.084       .  S
C465        C466   1.401       .  A
C465        C646   1.440       .  S
C466        C467   1.406       .  A
C466        H470   1.084       .  S
C467        C625   1.487       .  S
C467        C468   1.407       .  A
C468        H471   1.083       .  S
O472       Zr484   2.421       .  S
O472        C474   1.286       .  A
O473       Zr510   2.451       .  S
O473        C474   1.292       .  A
C474        C572   1.487       .  S
O475       Zr487   2.421       .  S
O475        C477   1.285       .  A
O476       Zr511   2.441       .  S
O476        C477   1.290       .  A
C477        C592   1.479       .  S
O478       Zr487   2.425       .  S
O478        C480   1.285       .  A
O479       Zr510   2.441   1_554  S
O479        C480   1.289       .  A
C480        C635   1.469       .  S
O481       Zr484   2.433       .  S
O481        C483   1.286       .  A
O482       Zr511   2.432   1_556  S
O482        C483   1.287       .  A
C483        C612   1.464       .  S
Zr484       O485   2.434       .  S
Zr484       O486   2.435       .  S
Zr484       O490   2.365       .  S
Zr484       O491   2.361   1_556  S
Zr484       O514   2.369       .  S
Zr484       O516   2.371       .  S
O485        H528   0.990       .  S
O486        H527   0.990       .  S
O486        H531   0.990       .  S
Zr487       O488   2.437       .  S
Zr487       O489   2.435       .  S
Zr487       O491   2.363       .  S
Zr487       O490   2.362   1_554  S
Zr487       O515   2.365       .  S
Zr487       O517   2.371       .  S
O488        H529   0.990       .  S
O488        H532   0.990       .  S
O489        H522   0.990       .  S
O490       Zr510   2.385       .  S
O491       Zr511   2.392       .  S
O491        H518   0.965       .  S
O492       Zr504   2.427       .  S
O492        C494   1.284       .  A
O493       Zr511   2.448   1_556  S
O493        C494   1.290       .  A
C494        C562   1.467       .  S
O495       Zr507   2.407       .  S
O495        C497   1.283       .  A
O496       Zr510   2.451   1_554  S
O496        C497   1.291       .  A
C497        C582   1.481       .  S
O498       Zr507   2.425       .  S
O498        C500   1.285       .  A
O499       Zr511   2.445       .  S
O499        C500   1.289       .  A
C500        C622   1.467       .  S
O501       Zr504   2.415       .  S
O501        C503   1.284       .  A
O502       Zr510   2.445       .  S
O502        C503   1.290       .  A
C503        C602   1.481       .  S
Zr504       O505   2.437       .  S
Zr504       O506   2.434       .  S
Zr504       O512   2.361   1_556  S
Zr504       O513   2.369   1_556  S
Zr504       O516   2.366       .  S
Zr504       O514   2.368       .  S
O505        H525   0.990       .  S
O505        H530   0.990       .  S
O506        H526   0.990       .  S
Zr507       O508   2.433       .  S
Zr507       O509   2.434       .  S
Zr507       O513   2.369       .  S
Zr507       O512   2.359       .  S
Zr507       O517   2.362       .  S
Zr507       O515   2.367       .  S
O508        H524   0.990       .  S
O509        H523   0.990       .  S
O509        H533   0.990       .  S
Zr510       O513   2.385   1_556  S
Zr510       O515   2.396   1_556  S
Zr510       O516   2.398       .  S
Zr511       O512   2.384       .  S
Zr511       O514   2.393   1_554  S
Zr511       O517   2.392       .  S
O512        H520   0.965       .  S
O515        H519   0.966       .  S
O516        H521   0.966       .  S
C534        C585   1.488       .  S
C534        C535   1.410       .  A
C534        C539   1.411       .  A
C535        C536   1.395       .  A
C535        H540   1.084       .  S
C536       C1265   1.391       .  A
C536        C648   1.437       .  S
C537       C1264   1.391   1_455  A
C537        C538   1.403       .  A
C537        H541   1.085       .  S
C538        C595   1.479       .  S
C538       C1267   1.408   1_455  A
C539       C1266   1.408       .  A
C539        H542   1.083       .  S
C543        C575   1.478       .  S
C543        C544   1.402       .  A
C544        H549   1.085       .  S
C545        C546   1.401       .  A
C545        C644   1.442       .  S
C546        C547   1.411       .  A
C546        H550   1.083       .  S
C547        C565   1.493       .  S
C547        C548   1.412       .  A
C548        H551   1.083       .  S
C552        C605   1.485       .  S
C552        C553   1.407       .  A
C552        C557   1.406       .  A
C553       C1282   1.410       .  A
C553        H558   1.083       .  S
C554        C615   1.485       .  S
C554       C1281   1.410   1_455  A
C554        C555   1.406       .  A
C555       C1284   1.397   1_455  A
C555        H559   1.084       .  S
C556       C1283   1.397       .  A
C556        C557   1.395       .  A
C556        C642   1.438       .  S
C557        H560   1.084       .  S
C561        C562   1.402       .  A
C561        C566   1.397       .  A
C561        H567   1.083       .  S
C562        C563   1.400       .  A
C563        C564   1.402       .  A
C563        H568   1.083       .  S
C564        C565   1.411       .  A
C564        H569   1.082       .  S
C565        C566   1.406       .  A
C566        H570   1.082       .  S
C571        C572   1.409       .  A
C571        C576   1.391       .  A
C571        H577   1.083       .  S
C572        C573   1.408       .  A
C573        C574   1.407       .  A
C573        H578   1.083       .  S
C574        C575   1.406       .  A
C574        H579   1.083       .  S
C575        C576   1.398       .  A
C576        H580   1.084       .  S
C581        C582   1.406       .  A
C581        C586   1.408       .  A
C581        H587   1.083       .  S
C582        C583   1.406       .  A
C583        C584   1.386       .  A
C583        H588   1.083       .  S
C584        C585   1.402       .  A
C584        H589   1.083       .  S
C585        C586   1.411       .  A
C586        H590   1.082       .  S
C591        C592   1.405       .  A
C591        C596   1.388       .  A
C591        H597   1.083       .  S
C592        C593   1.407       .  A
C593        C594   1.405       .  A
C593        H598   1.083       .  S
C594        C595   1.406       .  A
C594        H599   1.083       .  S
C595        C596   1.401       .  A
C596        H600   1.083       .  S
C601        C602   1.406       .  A
C601        C606   1.405       .  A
C601        H607   1.083       .  S
C602        C603   1.406       .  A
C603        C604   1.389       .  A
C603        H608   1.083       .  S
C604        C605   1.402       .  A
C604        H609   1.083       .  S
C605        C606   1.409       .  A
C606        H610   1.083       .  S
C611        C612   1.399       .  A
C611        C616   1.400       .  A
C611        H617   1.083       .  S
C612        C613   1.401       .  A
C613        C614   1.395       .  A
C613        H618   1.084       .  S
C614        C615   1.405       .  A
C614        H619   1.083       .  S
C615        C616   1.410       .  A
C616        H620   1.083       .  S
C621        C622   1.401       .  A
C621        C626   1.393       .  A
C621        H627   1.084       .  S
C622        C623   1.401       .  A
C623        C624   1.404       .  A
C623        H628   1.083       .  S
C624        C625   1.410       .  A
C624        H629   1.083       .  S
C625        C626   1.405       .  A
C626        H630   1.083       .  S
C631        C632   1.408       .  A
C631        C636   1.403       .  A
C631        H637   1.083       .  S
C632        C633   1.403       .  A
C633        C634   1.393       .  A
C633        H638   1.083       .  S
C634        C635   1.402       .  A
C634        H639   1.084       .  S
C635        C636   1.402       .  A
C636        H640   1.083       .  S
C641        C642   1.205       .  T
C643        C644   1.207       .  T
C645        C646   1.206       .  T
C647        C648   1.204       .  T
C649        C650   1.399       .  A
C649        C654   1.400       .  A
C649        H655   1.083       .  S
C650       C1379   1.400       .  A
C651       C1378   1.400       .  A
C651        C652   1.395       .  A
C651        H656   1.084       .  S
C652        C653   1.407       .  A
C652        H657   1.082       .  S
C653       C1382   1.410       .  A
C654       C1381   1.410       .  A
C654        H658   1.082       .  S
C659        C660   1.404       .  A
C659        C664   1.402       .  A
C659        H665   1.083       .  S
C660       C1389   1.405       .  A
C661       C1388   1.405   1_455  A
C661        C662   1.393       .  A
C661        H666   1.084       .  S
C662       C1391   1.400   1_455  A
C662        H667   1.083       .  S
C663       C1390   1.400       .  A
C663        C664   1.406       .  A
C664        H668   1.083       .  S
C669        C670   1.394       .  A
C669        C674   1.387       .  A
C669        H675   1.084       .  S
C670       C1399   1.405       .  A
C671       C1398   1.405       .  A
C671        C672   1.407       .  A
C671        H676   1.083       .  S
C672        C673   1.407       .  A
C672        H677   1.083       .  S
C673       C1402   1.411   1_455  A
C674       C1401   1.411       .  A
C674        H678   1.083       .  S
C679       C1408   1.406   1_455  A
C679        C684   1.394       .  A
C679        H685   1.082       .  S
C680       C1407   1.406       .  A
C680        C681   1.411       .  A
C681        C682   1.401       .  A
C681        H686   1.082       .  S
C682        C683   1.400       .  A
C682        H687   1.083       .  S
C683       C1412   1.400       .  A
C684       C1411   1.400   1_455  A
C684        H688   1.084       .  S
C689        C694   1.408       .  A
C689        H695   1.082       .  S
C690        C691   1.405       .  A
C691        C692   1.389       .  A
C691        H696   1.082       .  S
C692        H697   1.084       .  S
C693        C694   1.406       .  A
C694        H698   1.083       .  S
C699        C700   1.403       .  A
C699        C704   1.402       .  A
C699        H705   1.083       .  S
C700        C701   1.404       .  A
C701        C702   1.396       .  A
C702        C703   1.403       .  A
C703        C704   1.408       .  A
C704        H708   1.083       .  S
C709        C714   1.387       .  A
C709        H715   1.083       .  S
C710        C711   1.408       .  A
C711        C712   1.410       .  A
C711        H716   1.083       .  S
C712        H717   1.083       .  S
C713        C714   1.400       .  A
C714        H718   1.083       .  S
C719        C720   1.404       .  A
C719        C724   1.388       .  A
C719        H725   1.084       .  S
C720        C721   1.406       .  A
C721        C722   1.407       .  A
C721        H726   1.083       .  S
C722        C723   1.410       .  A
C722        H727   1.083       .  S
C723        C724   1.404       .  A
C724        H728   1.083       .  S
O729       Zr741   2.414       .  S
O729       C1095   1.284       .  A
O730       Zr767   2.446       .  S
O730        C731   1.290       .  A
C731       O1093   1.284   1_545  A
C731       C1084   1.479       .  S
O732       Zr744   2.434       .  S
O733       Zr768   2.434       .  S
O733        C734   1.288       .  A
C734       C1014   1.462       .  S
O735       Zr744   2.438       .  S
O735       C1101   1.288       .  A
O736       Zr767   2.433       .  S
O736        C737   1.288       .  A
C737       O1099   1.288   1_545  A
C737       C1064   1.473       .  S
O738       Zr741   2.406       .  S
O739       Zr768   2.458       .  S
O739        C740   1.292       .  A
C740       C1037   1.484       .  S
Zr741       O742   2.434       .  S
Zr741       O743   2.435       .  S
Zr741       O747   2.360       .  S
Zr741       O748   2.362       .  S
Zr741      O1137   2.361       .  S
O742        H785   0.990       .  S
O743        H784   0.990       .  S
O743        H788   0.990       .  S
Zr744       O745   2.437       .  S
Zr744       O746   2.435       .  S
Zr744       O748   2.366       .  S
Zr744       O747   2.364       .  S
Zr744      O1136   2.369       .  S
O745        H786   0.990       .  S
O745        H789   0.990       .  S
O746        H779   0.990       .  S
O747      Zr1131   2.380       .  S
O748        H775   0.965       .  S
O749       Zr761   2.414       .  S
O749       C1115   1.284   1_545  A
O750       Zr768   2.457       .  S
O750        C751   1.292       .  A
C751       O1113   1.284       .  A
C751       C1074   1.488       .  S
O752       Zr764   2.422       .  S
O753       Zr767   2.440       .  S
O753        C754   1.289       .  A
C754       C1024   1.473       .  S
O755       Zr764   2.417       .  S
O755       C1121   1.285   1_545  A
O756       Zr768   2.451       .  S
O756        C757   1.291       .  A
C757       O1119   1.285       .  A
C757       C1057   1.483       .  S
O758       Zr761   2.420       .  S
O759       Zr767   2.440       .  S
O759        C760   1.289       .  A
C760       C1047   1.464       .  S
Zr761       O762   2.437       .  S
Zr761       O763   2.435       .  S
Zr761       O769   2.366       .  S
Zr761       O770   2.361       .  S
Zr761      O1135   2.368   1_545  S
O762        H782   0.990       .  S
O762        H787   0.990       .  S
O763        H783   0.990       .  S
Zr764       O765   2.434       .  S
Zr764       O766   2.434       .  S
Zr764       O770   2.360       .  S
Zr764       O769   2.366       .  S
Zr764      O1138   2.366   1_545  S
O765        H781   0.990       .  S
O766        H780   0.990       .  S
O766        H790   0.990       .  S
Zr767      O1111   2.380   1_545  S
Zr767       O772   2.396       .  S
Zr767       O773   2.392       .  S
Zr768      O1133   2.391       .  S
Zr768       O771   2.395       .  S
Zr768       O774   2.399       .  S
O769      Zr1132   2.391   1_545  S
O769        H777   0.966       .  S
O771      Zr1125   2.368       .  S
O772      Zr1108   2.369   1_545  S
O772        H776   0.966       .  S
O773      Zr1105   2.361   1_545  S
O773        H778   0.966       .  S
O774      Zr1128   2.366       .  S
C791       C1044   1.488       .  S
C791        C792   1.410   1_655  A
C791        C796   1.409       .  A
C792        C793   1.400       .  A
C792        H797   1.083       .  S
C793       C1034   1.469       .  S
C793        C794   1.399       .  A
C794        C795   1.396   1_455  A
C794        H798   1.085       .  S
C795        C796   1.400       .  A
C795       C1011   1.437       .  S
C796        H799   1.083       .  S
C800       C1077   1.485   1_545  S
C800        C801   1.410       .  A
C800        C805   1.407       .  A
C801        C802   1.412       .  A
C801        H806   1.083       .  S
C802       C1087   1.488       .  S
C802        C803   1.408       .  A
C803        C804   1.393       .  A
C803        H807   1.084       .  S
C804        C805   1.394       .  A
C804       C1009   1.440       .  S
C805        H808   1.084       .  S
C809       C1054   1.494   1_545  S
C809        C810   1.410       .  A
C809        C814   1.409       .  A
C810        C811   1.410       .  A
C810        H815   1.083       .  S
C811       C1067   1.482       .  S
C811        C812   1.405       .  A
C812        C813   1.397       .  A
C812        H816   1.084       .  S
C813        C814   1.397       .  A
C813       C1007   1.442       .  S
C814        H817   1.083       .  S
C818       C1027   1.476       .  S
C818        C819   1.404   1_655  A
C818        C823   1.402       .  A
C819        C820   1.407       .  A
C819        H824   1.083       .  S
C820       C1017   1.489       .  S
C820        C821   1.407   1_455  A
C821        C822   1.399       .  A
C821        H825   1.083   1_655  S
C822        C823   1.399       .  A
C822       C1005   1.438       .  S
C823        H826   1.084       .  S
C827        C996   1.483       .  S
C827        C828   1.403       .  A
C827       C1196   1.405       .  A
C828       C1193   1.400       .  A
C828        H833   1.084       .  S
C829       C1192   1.400   1_545  A
C829        C830   1.401       .  A
C829       C1010   1.440       .  S
C830        C831   1.406       .  A
C830        H834   1.084       .  S
C831        C989   1.487       .  S
C831        C832   1.407       .  A
C832       C1191   1.405   1_545  A
C832        H835   1.083       .  S
O836       Zr848   2.421       .  S
O836        C838   1.286       .  A
O837       Zr874   2.451       .  S
O837        C838   1.292       .  A
C838        C936   1.487       .  S
O839       Zr851   2.421       .  S
O839        C841   1.285       .  A
O840       Zr875   2.441       .  S
O840        C841   1.290       .  A
C841        C956   1.479       .  S
O842       Zr851   2.425       .  S
O842        C844   1.285       .  A
O843       Zr874   2.441   1_554  S
O843        C844   1.289       .  A
C844        C999   1.469       .  S
O845       Zr848   2.433       .  S
O845        C847   1.286       .  A
O846       Zr875   2.432   1_556  S
O846        C847   1.287       .  A
C847        C976   1.464       .  S
Zr848       O849   2.434       .  S
Zr848       O850   2.435       .  S
Zr848       O854   2.365       .  S
Zr848       O855   2.361   1_556  S
Zr848       O878   2.369       .  S
Zr848       O880   2.371       .  S
O849        H892   0.990       .  S
O850        H891   0.990       .  S
O850        H895   0.990       .  S
Zr851       O852   2.437       .  S
Zr851       O853   2.435       .  S
Zr851       O855   2.363       .  S
Zr851       O854   2.362   1_554  S
Zr851       O879   2.365       .  S
Zr851       O881   2.371       .  S
O852        H893   0.990       .  S
O852        H896   0.990       .  S
O853        H886   0.990       .  S
O854       Zr874   2.385       .  S
O855       Zr875   2.392       .  S
O855        H882   0.965       .  S
O856       Zr868   2.427       .  S
O856        C858   1.284       .  A
O857       Zr875   2.448   1_556  S
O857        C858   1.290       .  A
C858        C926   1.467       .  S
O859       Zr871   2.407       .  S
O859        C861   1.283       .  A
O860       Zr874   2.451   1_554  S
O860        C861   1.291       .  A
C861        C946   1.481       .  S
O862       Zr871   2.425       .  S
O862        C864   1.285       .  A
O863       Zr875   2.445       .  S
O863        C864   1.289       .  A
C864        C986   1.467       .  S
O865       Zr868   2.415       .  S
O865        C867   1.284       .  A
O866       Zr874   2.445       .  S
O866        C867   1.290       .  A
C867        C966   1.481       .  S
Zr868       O869   2.437       .  S
Zr868       O870   2.434       .  S
Zr868       O876   2.361   1_556  S
Zr868       O877   2.369   1_556  S
Zr868       O880   2.366       .  S
Zr868       O878   2.368       .  S
O869        H889   0.990       .  S
O869        H894   0.990       .  S
O870        H890   0.990       .  S
Zr871       O872   2.433       .  S
Zr871       O873   2.434       .  S
Zr871       O877   2.369       .  S
Zr871       O876   2.359       .  S
Zr871       O881   2.362       .  S
Zr871       O879   2.367       .  S
O872        H888   0.990       .  S
O873        H887   0.990       .  S
O873        H897   0.990       .  S
Zr874       O877   2.385   1_556  S
Zr874       O879   2.396   1_556  S
Zr874       O880   2.398       .  S
Zr875       O876   2.384       .  S
Zr875       O878   2.393   1_554  S
Zr875       O881   2.392       .  S
O876        H884   0.965       .  S
O879        H883   0.966       .  S
O880        H885   0.966       .  S
C898        C949   1.488       .  S
C898        C899   1.410       .  A
C898        C903   1.411       .  A
C899        C900   1.395       .  A
C899        H904   1.084       .  S
C900       C1012   1.437       .  S
C901        C902   1.403       .  A
C901        H905   1.085       .  S
C902        C959   1.479       .  S
C903        H906   1.083       .  S
C907        C939   1.478       .  S
C907        C908   1.402       .  A
C907       C1276   1.405       .  A
C908       C1273   1.396       .  A
C908        H913   1.085       .  S
C909       C1272   1.396   1_545  A
C909        C910   1.401       .  A
C909       C1008   1.442       .  S
C910        C911   1.411       .  A
C910        H914   1.083       .  S
C911        C929   1.493       .  S
C911        C912   1.412       .  A
C912       C1271   1.405   1_545  A
C912        H915   1.083       .  S
C916        C969   1.485       .  S
C916        C917   1.407       .  A
C916        C921   1.406       .  A
C917        H922   1.083       .  S
C918        C979   1.485       .  S
C918        C919   1.406       .  A
C919        H923   1.084       .  S
C920        C921   1.395       .  A
C920       C1006   1.438       .  S
C921        H924   1.084       .  S
C925        C926   1.402       .  A
C925        C930   1.397       .  A
C925        H931   1.083       .  S
C926        C927   1.400       .  A
C927        C928   1.402       .  A
C927        H932   1.083       .  S
C928        C929   1.411       .  A
C928        H933   1.082       .  S
C929        C930   1.406       .  A
C930        H934   1.082       .  S
C935        C936   1.409       .  A
C935        C940   1.391       .  A
C935        H941   1.083       .  S
C936        C937   1.408       .  A
C937        C938   1.407       .  A
C937        H942   1.083       .  S
C938        C939   1.406       .  A
C938        H943   1.083       .  S
C939        C940   1.398       .  A
C940        H944   1.084       .  S
C945        C946   1.406       .  A
C945        C950   1.408       .  A
C945        H951   1.083       .  S
C946        C947   1.406       .  A
C947        C948   1.386       .  A
C947        H952   1.083       .  S
C948        C949   1.402       .  A
C948        H953   1.083       .  S
C949        C950   1.411       .  A
C950        H954   1.082       .  S
C955        C956   1.405       .  A
C955        C960   1.388       .  A
C955        H961   1.083       .  S
C956        C957   1.407       .  A
C957        C958   1.405       .  A
C957        H962   1.083       .  S
C958        C959   1.406       .  A
C958        H963   1.083       .  S
C959        C960   1.401       .  A
C960        H964   1.083       .  S
C965        C966   1.406       .  A
C965        C970   1.405       .  A
C965        H971   1.083       .  S
C966        C967   1.406       .  A
C967        C968   1.389       .  A
C967        H972   1.083       .  S
C968        C969   1.402       .  A
C968        H973   1.083       .  S
C969        C970   1.409       .  A
C970        H974   1.083       .  S
C975        C976   1.399       .  A
C975        C980   1.400       .  A
C975        H981   1.083       .  S
C976        C977   1.401       .  A
C977        C978   1.395       .  A
C977        H982   1.084       .  S
C978        C979   1.405       .  A
C978        H983   1.083       .  S
C979        C980   1.410       .  A
C980        H984   1.083       .  S
C985        C986   1.401       .  A
C985        C990   1.393       .  A
C985        H991   1.084       .  S
C986        C987   1.401       .  A
C987        C988   1.404       .  A
C987        H992   1.083       .  S
C988        C989   1.410       .  A
C988        H993   1.083       .  S
C989        C990   1.405       .  A
C990        H994   1.083       .  S
C995        C996   1.408       .  A
C995       C1000   1.403       .  A
C995       H1001   1.083       .  S
C996        C997   1.403       .  A
C997        C998   1.393       .  A
C997       H1002   1.083       .  S
C998        C999   1.402       .  A
C998       H1003   1.084       .  S
C999       C1000   1.402       .  A
C1000      H1004   1.083       .  S
C1005      C1006   1.205       .  T
C1007      C1008   1.207       .  T
C1009      C1010   1.206       .  T
C1011      C1012   1.204       .  T
C1013      C1014   1.399       .  A
C1013      C1018   1.400       .  A
C1013      H1019   1.083       .  S
C1015      C1016   1.395   1_455  A
C1015      H1020   1.084   1_455  S
C1016      C1017   1.407   1_655  A
C1016      H1021   1.082       .  S
C1018      H1022   1.082       .  S
C1023      C1024   1.404       .  A
C1023      C1028   1.402       .  A
C1023      H1029   1.083       .  S
C1025      C1026   1.393       .  A
C1025      H1030   1.084       .  S
C1026      H1031   1.083       .  S
C1027      C1028   1.406       .  A
C1028      H1032   1.083       .  S
C1033      C1034   1.394   1_655  A
C1033      C1038   1.387       .  A
C1033      H1039   1.084       .  S
C1035      C1036   1.407       .  A
C1035      H1040   1.083       .  S
C1036      C1037   1.407       .  A
C1036      H1041   1.083       .  S
C1038      H1042   1.083       .  S
C1043      C1048   1.394       .  A
C1043      H1049   1.082       .  S
C1044      C1045   1.411       .  A
C1045      C1046   1.401       .  A
C1045      H1050   1.082       .  S
C1046      C1047   1.400       .  A
C1046      H1051   1.083       .  S
C1048      H1052   1.084       .  S
C1053      C1418   1.412       .  A
C1053      C1058   1.408       .  A
C1053      H1059   1.082       .  S
C1054      C1417   1.412       .  A
C1054      C1055   1.405   1_565  A
C1055      C1056   1.389       .  A
C1055      H1060   1.082       .  S
C1056      C1421   1.405   1_545  A
C1056      H1061   1.084       .  S
C1057      C1420   1.405       .  A
C1057      C1058   1.406       .  A
C1058      H1062   1.083       .  S
C1063      C1064   1.403       .  A
C1063      C1068   1.402       .  A
C1063      H1069   1.083       .  S
C1064      C1065   1.404   1_545  A
C1065      C1066   1.396       .  A
C1065      H1434   1.083       .  S
C1066      C1067   1.403   1_565  A
C1066      H1435   1.083       .  S
C1067      C1068   1.408       .  A
C1068      H1072   1.083       .  S
H1070      C1429   1.083       .  S
H1071      C1430   1.083       .  S
C1073      C1438   1.408   1_545  A
C1073      C1078   1.387       .  A
C1073      H1079   1.083       .  S
C1074      C1437   1.408       .  A
C1074      C1075   1.408       .  A
C1075      C1076   1.410       .  A
C1075      H1080   1.083       .  S
C1076      C1441   1.409       .  A
C1076      H1081   1.083       .  S
C1077      C1440   1.409       .  A
C1077      C1078   1.400   1_565  A
C1078      H1082   1.083       .  S
C1083      C1084   1.404       .  A
C1083      C1088   1.388       .  A
C1083      H1089   1.084       .  S
C1084      C1085   1.406       .  A
C1085      C1086   1.407       .  A
C1085      H1090   1.083       .  S
C1086      C1087   1.410       .  A
C1086      H1091   1.083       .  S
C1087      C1088   1.404       .  A
C1088      H1092   1.083   1_545  S
O1093     Zr1105   2.414       .  S
O1094     Zr1131   2.446       .  S
O1094      C1095   1.290       .  A
C1095      C1448   1.479       .  S
O1096     Zr1108   2.434       .  S
O1097     Zr1132   2.434       .  S
O1097      C1098   1.288       .  A
C1098      C1378   1.462       .  S
O1099     Zr1108   2.438       .  S
O1100     Zr1131   2.433       .  S
O1100      C1101   1.288       .  A
C1101      C1428   1.473       .  S
O1102     Zr1105   2.406       .  S
O1103     Zr1132   2.458       .  S
O1103      C1104   1.292       .  A
C1104      C1401   1.484       .  S
Zr1105     O1106   2.434       .  S
Zr1105     O1107   2.435       .  S
Zr1105     O1111   2.360       .  S
Zr1105     O1112   2.362       .  S
O1106      H1149   0.990       .  S
O1107      H1148   0.990       .  S
O1107      H1152   0.990       .  S
Zr1108     O1109   2.437       .  S
Zr1108     O1110   2.435       .  S
Zr1108     O1112   2.366       .  S
Zr1108     O1111   2.364       .  S
O1109      H1150   0.990       .  S
O1109      H1153   0.990       .  S
O1110      H1143   0.990       .  S
O1112      H1139   0.965       .  S
O1113     Zr1125   2.414       .  S
O1114     Zr1132   2.457       .  S
O1114      C1115   1.292       .  A
C1115      C1438   1.488       .  S
O1116     Zr1128   2.422       .  S
O1117     Zr1131   2.440       .  S
O1117      C1118   1.289       .  A
C1118      C1388   1.473       .  S
O1119     Zr1128   2.417       .  S
O1120     Zr1132   2.451       .  S
O1120      C1121   1.291       .  A
C1121      C1421   1.483       .  S
O1122     Zr1125   2.420       .  S
O1123     Zr1131   2.440       .  S
O1123      C1124   1.289       .  A
C1124      C1411   1.464       .  S
Zr1125     O1126   2.437       .  S
Zr1125     O1127   2.435       .  S
Zr1125     O1133   2.366       .  S
Zr1125     O1134   2.361       .  S
O1126      H1146   0.990       .  S
O1126      H1151   0.990       .  S
O1127      H1147   0.990       .  S
Zr1128     O1129   2.434       .  S
Zr1128     O1130   2.434       .  S
Zr1128     O1134   2.360       .  S
Zr1128     O1133   2.366       .  S
O1129      H1145   0.990       .  S
O1130      H1144   0.990       .  S
O1130      H1154   0.990       .  S
Zr1131     O1136   2.396       .  S
Zr1131     O1137   2.392       .  S
Zr1132     O1135   2.395       .  S
Zr1132     O1138   2.399       .  S
O1133      H1141   0.966       .  S
O1136      H1140   0.966       .  S
O1137      H1142   0.966       .  S
C1155      C1408   1.488       .  S
C1155      C1156   1.410   1_655  A
C1155      C1160   1.409       .  A
C1156      C1157   1.400       .  A
C1156      H1161   1.083       .  S
C1157      C1398   1.469       .  S
C1157      C1158   1.399       .  A
C1158      C1159   1.396   1_455  A
C1158      H1162   1.085       .  S
C1159      C1160   1.400       .  A
C1159      C1375   1.437       .  S
C1160      H1163   1.083       .  S
C1164      C1441   1.485       .  S
C1164      C1165   1.410       .  A
C1164      C1169   1.407       .  A
C1165      C1166   1.412       .  A
C1165      H1170   1.083       .  S
C1166      C1451   1.488       .  S
C1166      C1167   1.408       .  A
C1167      C1168   1.393       .  A
C1167      H1171   1.084       .  S
C1168      C1169   1.394       .  A
C1168      C1373   1.440       .  S
C1169      H1172   1.084       .  S
C1173      C1418   1.494       .  S
C1173      C1174   1.410       .  A
C1173      C1178   1.409       .  A
C1174      C1175   1.410       .  A
C1174      H1179   1.083       .  S
C1175      C1431   1.482       .  S
C1175      C1176   1.405       .  A
C1176      C1177   1.397       .  A
C1176      H1180   1.084       .  S
C1177      C1178   1.397       .  A
C1177      C1371   1.442       .  S
C1178      H1181   1.083       .  S
C1182      C1391   1.476       .  S
C1182      C1183   1.404   1_655  A
C1182      C1187   1.402       .  A
C1183      C1184   1.407       .  A
C1183      H1188   1.083       .  S
C1184      C1381   1.489       .  S
C1184      C1185   1.407   1_455  A
C1185      C1186   1.399       .  A
C1185      H1189   1.083   1_655  S
C1186      C1187   1.399       .  A
C1186      C1369   1.438       .  S
C1187      H1190   1.084       .  S
C1191      C1360   1.483       .  S
C1191      C1192   1.403       .  A
C1192      H1197   1.084       .  S
C1193      C1194   1.401       .  A
C1193      C1374   1.440       .  S
C1194      C1195   1.406       .  A
C1194      H1198   1.084       .  S
C1195      C1353   1.487       .  S
C1195      C1196   1.407       .  A
C1196      H1199   1.083       .  S
O1200     Zr1212   2.421       .  S
O1200      C1202   1.286       .  A
O1201     Zr1238   2.451       .  S
O1201      C1202   1.292       .  A
C1202      C1300   1.487       .  S
O1203     Zr1215   2.421       .  S
O1203      C1205   1.285       .  A
O1204     Zr1239   2.441       .  S
O1204      C1205   1.290       .  A
C1205      C1320   1.479       .  S
O1206     Zr1215   2.425       .  S
O1206      C1208   1.285       .  A
O1207     Zr1238   2.441   1_554  S
O1207      C1208   1.289       .  A
C1208      C1363   1.469       .  S
O1209     Zr1212   2.433       .  S
O1209      C1211   1.286       .  A
O1210     Zr1239   2.432   1_556  S
O1210      C1211   1.287       .  A
C1211      C1340   1.464       .  S
Zr1212     O1213   2.434       .  S
Zr1212     O1214   2.435       .  S
Zr1212     O1218   2.365       .  S
Zr1212     O1219   2.361   1_556  S
Zr1212     O1242   2.369       .  S
Zr1212     O1244   2.371       .  S
O1213      H1256   0.990       .  S
O1214      H1255   0.990       .  S
O1214      H1259   0.990       .  S
Zr1215     O1216   2.437       .  S
Zr1215     O1217   2.435       .  S
Zr1215     O1219   2.363       .  S
Zr1215     O1218   2.362   1_554  S
Zr1215     O1243   2.365       .  S
Zr1215     O1245   2.371       .  S
O1216      H1257   0.990       .  S
O1216      H1260   0.990       .  S
O1217      H1250   0.990       .  S
O1218     Zr1238   2.385       .  S
O1219     Zr1239   2.392       .  S
O1219      H1246   0.965       .  S
O1220     Zr1232   2.427       .  S
O1220      C1222   1.284       .  A
O1221     Zr1239   2.448   1_556  S
O1221      C1222   1.290       .  A
C1222      C1290   1.467       .  S
O1223     Zr1235   2.407       .  S
O1223      C1225   1.283       .  A
O1224     Zr1238   2.451   1_554  S
O1224      C1225   1.291       .  A
C1225      C1310   1.481       .  S
O1226     Zr1235   2.425       .  S
O1226      C1228   1.285       .  A
O1227     Zr1239   2.445       .  S
O1227      C1228   1.289       .  A
C1228      C1350   1.467       .  S
O1229     Zr1232   2.415       .  S
O1229      C1231   1.284       .  A
O1230     Zr1238   2.445       .  S
O1230      C1231   1.290       .  A
C1231      C1330   1.481       .  S
Zr1232     O1233   2.437       .  S
Zr1232     O1234   2.434       .  S
Zr1232     O1240   2.361   1_556  S
Zr1232     O1241   2.369   1_556  S
Zr1232     O1244   2.366       .  S
Zr1232     O1242   2.368       .  S
O1233      H1253   0.990       .  S
O1233      H1258   0.990       .  S
O1234      H1254   0.990       .  S
Zr1235     O1236   2.433       .  S
Zr1235     O1237   2.434       .  S
Zr1235     O1241   2.369       .  S
Zr1235     O1240   2.359       .  S
Zr1235     O1245   2.362       .  S
Zr1235     O1243   2.367       .  S
O1236      H1252   0.990       .  S
O1237      H1251   0.990       .  S
O1237      H1261   0.990       .  S
Zr1238     O1241   2.385   1_556  S
Zr1238     O1243   2.396   1_556  S
Zr1238     O1244   2.398       .  S
Zr1239     O1240   2.384       .  S
Zr1239     O1242   2.393   1_554  S
Zr1239     O1245   2.392       .  S
O1240      H1248   0.965       .  S
O1243      H1247   0.966       .  S
O1244      H1249   0.966       .  S
C1262      C1313   1.488       .  S
C1262      C1263   1.410       .  A
C1262      C1267   1.411       .  A
C1263      C1264   1.395       .  A
C1263      H1268   1.084       .  S
C1264      C1376   1.437       .  S
C1265      C1266   1.403       .  A
C1265      H1269   1.085       .  S
C1266      C1323   1.479       .  S
C1267      H1270   1.083       .  S
C1271      C1303   1.478       .  S
C1271      C1272   1.402       .  A
C1272      H1277   1.085       .  S
C1273      C1274   1.401       .  A
C1273      C1372   1.442       .  S
C1274      C1275   1.411       .  A
C1274      H1278   1.083       .  S
C1275      C1293   1.493       .  S
C1275      C1276   1.412       .  A
C1276      H1279   1.083       .  S
C1280      C1333   1.485       .  S
C1280      C1281   1.407       .  A
C1280      C1285   1.406       .  A
C1281      H1286   1.083       .  S
C1282      C1343   1.485       .  S
C1282      C1283   1.406       .  A
C1283      H1287   1.084       .  S
C1284      C1285   1.395       .  A
C1284      C1370   1.438       .  S
C1285      H1288   1.084       .  S
C1289      C1290   1.402       .  A
C1289      C1294   1.397       .  A
C1289      H1295   1.083       .  S
C1290      C1291   1.400       .  A
C1291      C1292   1.402       .  A
C1291      H1296   1.083       .  S
C1292      C1293   1.411       .  A
C1292      H1297   1.082       .  S
C1293      C1294   1.406       .  A
C1294      H1298   1.082       .  S
C1299      C1300   1.409       .  A
C1299      C1304   1.391       .  A
C1299      H1305   1.083       .  S
C1300      C1301   1.408       .  A
C1301      C1302   1.407       .  A
C1301      H1306   1.083       .  S
C1302      C1303   1.406       .  A
C1302      H1307   1.083       .  S
C1303      C1304   1.398       .  A
C1304      H1308   1.084       .  S
C1309      C1310   1.406       .  A
C1309      C1314   1.408       .  A
C1309      H1315   1.083       .  S
C1310      C1311   1.406       .  A
C1311      C1312   1.386       .  A
C1311      H1316   1.083       .  S
C1312      C1313   1.402       .  A
C1312      H1317   1.083       .  S
C1313      C1314   1.411       .  A
C1314      H1318   1.082       .  S
C1319      C1320   1.405       .  A
C1319      C1324   1.388       .  A
C1319      H1325   1.083       .  S
C1320      C1321   1.407       .  A
C1321      C1322   1.405       .  A
C1321      H1326   1.083       .  S
C1322      C1323   1.406       .  A
C1322      H1327   1.083       .  S
C1323      C1324   1.401       .  A
C1324      H1328   1.083       .  S
C1329      C1330   1.406       .  A
C1329      C1334   1.405       .  A
C1329      H1335   1.083       .  S
C1330      C1331   1.406       .  A
C1331      C1332   1.389       .  A
C1331      H1336   1.083       .  S
C1332      C1333   1.402       .  A
C1332      H1337   1.083       .  S
C1333      C1334   1.409       .  A
C1334      H1338   1.083       .  S
C1339      C1340   1.399       .  A
C1339      C1344   1.400       .  A
C1339      H1345   1.083       .  S
C1340      C1341   1.401       .  A
C1341      C1342   1.395       .  A
C1341      H1346   1.084       .  S
C1342      C1343   1.405       .  A
C1342      H1347   1.083       .  S
C1343      C1344   1.410       .  A
C1344      H1348   1.083       .  S
C1349      C1350   1.401       .  A
C1349      C1354   1.393       .  A
C1349      H1355   1.084       .  S
C1350      C1351   1.401       .  A
C1351      C1352   1.404       .  A
C1351      H1356   1.083       .  S
C1352      C1353   1.410       .  A
C1352      H1357   1.083       .  S
C1353      C1354   1.405       .  A
C1354      H1358   1.083       .  S
C1359      C1360   1.408       .  A
C1359      C1364   1.403       .  A
C1359      H1365   1.083       .  S
C1360      C1361   1.403       .  A
C1361      C1362   1.393       .  A
C1361      H1366   1.083       .  S
C1362      C1363   1.402       .  A
C1362      H1367   1.084       .  S
C1363      C1364   1.402       .  A
C1364      H1368   1.083       .  S
C1369      C1370   1.205       .  T
C1371      C1372   1.207       .  T
C1373      C1374   1.206       .  T
C1375      C1376   1.204       .  T
C1377      C1378   1.399       .  A
C1377      C1382   1.400       .  A
C1377      H1383   1.083       .  S
C1379      C1380   1.395   1_455  A
C1379      H1384   1.084   1_455  S
C1380      C1381   1.407   1_655  A
C1380      H1385   1.082       .  S
C1382      H1386   1.082       .  S
C1387      C1388   1.404       .  A
C1387      C1392   1.402       .  A
C1387      H1393   1.083       .  S
C1389      C1390   1.393       .  A
C1389      H1394   1.084       .  S
C1390      H1395   1.083       .  S
C1391      C1392   1.406       .  A
C1392      H1396   1.083       .  S
C1397      C1398   1.394   1_655  A
C1397      C1402   1.387       .  A
C1397      H1403   1.084       .  S
C1399      C1400   1.407       .  A
C1399      H1404   1.083       .  S
C1400      C1401   1.407       .  A
C1400      H1405   1.083       .  S
C1402      H1406   1.083       .  S
C1407      C1412   1.394       .  A
C1407      H1413   1.082       .  S
C1408      C1409   1.411       .  A
C1409      C1410   1.401       .  A
C1409      H1414   1.082       .  S
C1410      C1411   1.400       .  A
C1410      H1415   1.083       .  S
C1412      H1416   1.084       .  S
C1417      C1422   1.408       .  A
C1417      H1423   1.082       .  S
C1418      C1419   1.405       .  A
C1419      C1420   1.389       .  A
C1419      H1424   1.082       .  S
C1420      H1425   1.084       .  S
C1421      C1422   1.406       .  A
C1422      H1426   1.083       .  S
C1427      C1428   1.403       .  A
C1427      C1432   1.402       .  A
C1427      H1433   1.083       .  S
C1428      C1429   1.404       .  A
C1429      C1430   1.396       .  A
C1430      C1431   1.403       .  A
C1431      C1432   1.408       .  A
C1432      H1436   1.083       .  S
C1437      C1442   1.387       .  A
C1437      H1443   1.083       .  S
C1438      C1439   1.408       .  A
C1439      C1440   1.410       .  A
C1439      H1444   1.083       .  S
C1440      H1445   1.083       .  S
C1441      C1442   1.400       .  A
C1442      H1446   1.083       .  S
C1447      C1448   1.404       .  A
C1447      C1452   1.388       .  A
C1447      H1453   1.084       .  S
C1448      C1449   1.406       .  A
C1449      C1450   1.407       .  A
C1449      H1454   1.083       .  S
C1450      C1451   1.410       .  A
C1450      H1455   1.083       .  S
C1451      C1452   1.404       .  A
C1452      H1456   1.083       .  S
