geometry optimzed in LAMMPS
_audit_creation_date              2020-11-30 
_audit_creation_method            'lammps2cif' 
_symmetry_space_group_name_H-M    'P1' 
_symmetry_Int_Tables_number       1 
_symmetry_cell_setting            triclinic 
loop_ 
_symmetry_equiv_pos_as_xyz 
  x,y,z 
_cell_length_a                    36.73377889 
_cell_length_b                    37.998717557513615 
_cell_length_c                    25.069557394019196 
_cell_angle_alpha                 89.84772762154871 
_cell_angle_beta                  89.75854932789618 
_cell_angle_gamma                 90.49064112783125 
loop_ 
_atom_site_label 
_atom_site_type_symbol 
_atom_site_fract_x 
_atom_site_fract_y 
_atom_site_fract_z 
_atom_site_charge 
C1          C  0.97520829  0.38586188  0.18518410    -0.02700
C2          C  0.54593141  0.16571244  0.69517085    -0.02700
Zr3        Zr  0.60640710  0.10416770  0.22146976     2.17500
O4          O  0.57357598  0.07402854  0.15035279    -0.51600
O5          O  0.65349402  0.05948852  0.23455704    -0.74800
O6          O  0.63787978  0.11060578  0.13583650    -0.81600
O7          O  0.53808301  0.07179026  0.31736605    -0.83300
O8          O  0.67179105  0.16072411  0.13966702    -0.78900
O9          O  0.56738736  0.05350840  0.24310493    -0.90600
O10         O  0.68050412  0.07107316  0.31416378    -0.76500
O11         O  0.66171355  0.12936092  0.25365359    -0.86000
O12         O  0.60469570  0.09932922  0.31647463    -0.85700
O13         O  0.60465852  0.16510380  0.19344725    -0.72500
O14         O  0.55311564  0.13688034  0.24903783    -0.84600
Zr15       Zr  0.60939177  0.21685524  0.35211936     2.26400
Zr16       Zr  0.66084196  0.18935933  0.22534504     2.06300
Zr17       Zr  0.55244733  0.13191081  0.34359573     2.10000
Zr18       Zr  0.65930679  0.12516896  0.34851872     1.78800
O19         O  0.49017675  0.15049393  0.32750106    -0.93400
O20         O  0.72543688  0.13056256  0.34571236    -0.41200
O21         O  0.60765793  0.15635001  0.37851719    -0.77900
O22         O  0.66161940  0.18471335  0.32102387    -0.96500
O23         O  0.61030701  0.22300847  0.25730339    -0.89800
O24         O  0.55279697  0.19321825  0.32092131    -0.92700
C25         C  0.67586218  0.05259761  0.27246544     1.01100
C26         C  0.54534023  0.04824616  0.28227585     1.14000
C27         C  0.66002000  0.13323035  0.11504167     1.04800
O28         O  0.72591156  0.17866684  0.21767085    -0.94800
O29         O  0.69291355  0.23908011  0.26329353    -0.90600
O30         O  0.66415733  0.25336162  0.34049759    -0.83700
C31         C  0.68984387  0.25751831  0.30584309     1.11400
O32         O  0.52191431  0.18023428  0.14673097    -0.96800
Zr33       Zr  0.55448045  0.19884947  0.22640575     1.88900
O34         O  0.57223691  0.26825007  0.33347723    -0.73500
O35         O  0.66071535  0.23657396  0.15920200    -0.52700
O36         O  0.57034328  0.23594457  0.15025442    -0.97400
O37         O  0.48841823  0.20194532  0.23567289    -0.54600
O38         O  0.54082974  0.25835659  0.25706246    -0.74000
C39         C  0.55014246  0.27770678  0.29677324     0.98400
O40         O  0.62853419  0.25602609  0.42393266    -0.62800
O41         O  0.51759359  0.10088277  0.41254206    -0.57600
O42         O  0.58318932  0.20181634  0.44077342    -0.94300
O43         O  0.55642411  0.14778433  0.43623600    -0.92700
O44         O  0.64834637  0.08160972  0.41832352    -0.93100
O45         O  0.68335998  0.14426472  0.43418476    -0.91900
C46         C  0.56700726  0.17492344  0.46212217     1.17200
H47         H  0.60411819  0.07520547  0.32854450     0.33100
H48         H  0.68419729  0.19328003  0.33576653     0.44000
H49         H  0.53245526  0.20540789  0.33682604     0.37500
H50         H  0.60333940  0.16676600  0.15512761     0.34000
H51         H  0.73428832  0.10987788  0.36580638     0.25800
H52         H  0.68639993  0.24453727  0.15658965     0.31700
H53         H  0.55279579  0.25556282  0.15141641     0.37600
H54         H  0.62615757  0.08981001  0.43691467     0.32100
H55         H  0.49543184  0.09171910  0.39483595     0.31000
H56         H  0.47819722  0.12972098  0.31123365     0.32700
H57         H  0.48081549  0.21959621  0.20889023     0.31600
H58         H  0.68011041  0.17010788  0.43430282     0.35600
H59         H  0.60592572  0.26596253  0.43912087     0.28400
H60         H  0.59167885  0.05872609  0.13273729     0.32600
H61         H  0.51903131  0.15443323  0.15084015     0.35400
H62         H  0.53199918  0.07975431  0.42141570     0.28100
H63         H  0.63856420  0.24077666  0.45229777     0.40900
H64         H  0.73560378  0.19897768  0.19708202     0.31000
H65         H  0.73208639  0.12565417  0.30815491     0.38600
H66         H  0.48410535  0.21366212  0.27032553     0.30400
H67         H  0.65578345  0.22511547  0.12453883     0.30500
H68         H  0.56804614  0.09250894  0.12374678     0.30800
C69         C  0.73379751  0.09232998  0.81408813     0.86200
C70         C  0.72086809  0.08925487  0.87288346    -0.54000
C71         C  0.70355417  0.11856973  0.89196454     0.09200
C72         C  0.70069061  0.14828820  0.85020248     0.20100
C73         C  0.69974775  0.10234629  0.78249583    -0.54700
C74         C  0.68254783  0.13168059  0.80113471     0.09300
C75         C  0.75741964  0.12574095  0.81468634    -0.54300
C76         C  0.74009488  0.15468611  0.83276895     0.09800
H77         H  0.72701019  0.06699922  0.89836173     0.14400
H78         H  0.68677334  0.17234458  0.86444220     0.00100
H79         H  0.69028073  0.08767957  0.74804261     0.14700
H80         H  0.78586954  0.12699283  0.80305618     0.14400
Zr81       Zr  0.90217347  0.43381269  0.72170154     2.17500
O82         O  0.92826360  0.47320894  0.65439154    -0.51600
O83         O  0.85033419  0.47386823  0.73374118    -0.74800
O84         O  0.87517366  0.42450457  0.63341865    -0.81600
O85         O  0.97126389  0.46864513  0.81889370    -0.83300
O86         O  0.84562576  0.37186724  0.63477018    -0.78900
O87         O  0.94199925  0.48361516  0.74257389    -0.90600
O88         O  0.81890759  0.45535596  0.80665343    -0.76500
O89         O  0.84873070  0.40360467  0.75116592    -0.86000
O90         O  0.90172815  0.43744991  0.81701651    -0.85700
O91         O  0.91065546  0.37403137  0.69172996    -0.72500
O92         O  0.95765390  0.40572846  0.75094852    -0.84600
Zr93       Zr  0.90707307  0.32024120  0.84826243     2.26400
Zr94       Zr  0.85609725  0.34455545  0.72099945     2.06300
Zr95       Zr  0.95625689  0.40885931  0.84609120     2.10000
Zr96       Zr  0.84873612  0.40666130  0.84616467     1.78800
O97         O  0.02176017  0.40287499  0.83496320    -0.93400
O98         O  0.78361086  0.39364046  0.84698772    -0.41200
O99         O  0.90255905  0.37969750  0.87785105    -0.77900
O100        O  0.85237053  0.34784557  0.81668053    -0.96500
O101        O  0.90912589  0.31542664  0.75346911    -0.89800
O102        O  0.96226880  0.34848996  0.82040233    -0.92700
C103        C  0.82354499  0.47589382  0.76692961     1.01100
C104        C  0.96352130  0.49046018  0.78147388     1.14000
C105        C  0.85591449  0.40026991  0.61104442     1.04800
O106        O  0.79087468  0.35145318  0.70828581    -0.94800
O107        O  0.82864544  0.29142529  0.75704055    -0.90600
O108        O  0.85527058  0.28117965  0.83707491    -0.83700
C109        C  0.83156187  0.27438986  0.80102817     1.11400
O110        O  0.99573913  0.36586333  0.64676607    -0.96800
Zr111      Zr  0.96323258  0.34483168  0.72565478     1.88900
O112        O  0.94492055  0.27071698  0.82423966    -0.73500
O113        O  0.85914129  0.29949883  0.65215831    -0.52700
O114        O  0.95825639  0.31014491  0.64445719    -0.97400
O115        O  0.02835148  0.35126901  0.74225790    -0.54600
O116        O  0.97651660  0.28390136  0.74912293    -0.74000
C117        C  0.96657512  0.26241884  0.78619187     0.98400
O118        O  0.90008901  0.27969325  0.92343125    -0.62800
O119        O  0.96657272  0.44536935  0.92454618    -0.57600
O120        O  0.92732085  0.33496717  0.93869629    -0.94300
O121        O  0.96559163  0.38215132  0.93294679    -0.92700
O122        O  0.85512141  0.45009819  0.91690494    -0.93100
O123        O  0.82388760  0.38292313  0.92914951    -0.91900
C124        C  0.94970465  0.35734857  0.95919180     1.17200
H125        H  0.90072534  0.46158105  0.82896105     0.33100
H126        H  0.83007040  0.33767057  0.83040582     0.44000
H127        H  0.98311302  0.33762022  0.83680873     0.37500
H128        H  0.91338967  0.37292997  0.65352195     0.34000
H129        H  0.77234434  0.41382759  0.86550675     0.25800
H130        H  0.87624510  0.30906181  0.62503653     0.31700
H131        H  0.94059166  0.29117674  0.65328741     0.37600
H132        H  0.83984957  0.47012481  0.90573362     0.32100
H133        H  0.98937527  0.45869370  0.91745533     0.31000
H134        H  0.03237922  0.42187396  0.85708372     0.32700
H135        H  0.04011715  0.33556011  0.71600046     0.31600
H136        H  0.84526503  0.37410731  0.94885855     0.35600
H137        H  0.87469826  0.28243721  0.93613612     0.28400
H138        H  0.90756435  0.48714471  0.64088530     0.32600
H139        H  0.99238676  0.39168592  0.64708812     0.35400
H140        H  0.94703656  0.46313290  0.92370934     0.28100
H141        H  0.90088936  0.25575197  0.90799931     0.40900
H142        H  0.78001253  0.34702121  0.74388861     0.31000
H143        H  0.77591395  0.39618088  0.80939187     0.38600
H144        H  0.03265363  0.33963902  0.77698160     0.30400
H145        H  0.87241453  0.27976975  0.66879117     0.30500
H146        H  0.93559886  0.45805517  0.62420597     0.30800
C147        C  0.77878181  0.44182145  0.31619954     0.86200
C148        C  0.79091390  0.44204130  0.37488242    -0.54000
C149        C  0.81208838  0.41417742  0.38921505     0.09200
C150        C  0.82003220  0.38887825  0.34252959     0.20100
C151        C  0.81499099  0.44075721  0.28549921    -0.54700
C152        C  0.83690569  0.41294750  0.29856613     0.09300
C153        C  0.76128316  0.40585945  0.30733724    -0.54300
C154        C  0.78234472  0.37834759  0.32136385     0.09800
H155        H  0.78311730  0.46239587  0.40289022     0.14400
H156        H  0.83630310  0.36564283  0.35360037     0.00100
H157        H  0.82372862  0.46136003  0.25845071     0.14700
H158        H  0.73347829  0.40238375  0.29342193     0.14400
C159        C  0.47347868  0.41270865  0.32376908    -0.02700
C160        C  0.04031632  0.12807592  0.81611001    -0.02700
Zr161      Zr  0.11208188  0.19674074  0.29270791     2.17500
O162        O  0.08188699  0.22688911  0.36613641    -0.51600
O163        O  0.16219360  0.23950369  0.28227132    -0.74800
O164        O  0.14302197  0.18595346  0.37800275    -0.81600
O165        O  0.03781715  0.23148973  0.20273520    -0.83300
O166        O  0.17231969  0.13372449  0.37131677    -0.78900
O167        O  0.07424661  0.24812452  0.27148599    -0.90600
O168        O  0.19770663  0.22038280  0.21426391    -0.76500
O169        O  0.16566639  0.16840026  0.26134076    -0.86000
O170        O  0.11288255  0.20415793  0.19829415    -0.85700
O171        O  0.10443085  0.13545861  0.31688356    -0.72500
O172        O  0.05721886  0.16819876  0.26075313    -0.84600
Zr173      Zr  0.10738599  0.08744274  0.15684142     2.26400
Zr174      Zr  0.15872739  0.10782861  0.28520940     2.06300
Zr175      Zr  0.05885626  0.17599392  0.16619481     2.10000
Zr176      Zr  0.16596619  0.17552075  0.16697216     1.78800
O177        O  0.99315869  0.16722373  0.16360093    -0.93400
O178        O  0.22974353  0.15853511  0.16097123    -0.41200
O179        O  0.11244834  0.14830958  0.13288078    -0.77900
O180        O  0.16166757  0.11530916  0.19031786    -0.96500
O181        O  0.10587984  0.07848085  0.25099664    -0.89800
O182        O  0.05252396  0.11442784  0.18692747    -0.92700
C183        C  0.19073134  0.24147419  0.25232844     1.01100
C184        C  0.04846590  0.25382272  0.23787385     1.14000
C185        C  0.16301744  0.16132718  0.39736317     1.04800
O186        O  0.22461037  0.11001888  0.29510590    -0.94800
O187        O  0.18734429  0.05757071  0.24385246    -0.90600
O188        O  0.15931244  0.04813811  0.16449469    -0.83700
C189        C  0.18407910  0.04151805  0.19910667     1.11400
O190        O  0.01556614  0.12704887  0.35608316    -0.96800
Zr191      Zr  0.05178103  0.10611769  0.28109633     1.88900
O192        O  0.06449404  0.03908655  0.17268421    -0.73500
O193        O  0.15123092  0.06198339  0.35253897    -0.52700
O194        O  0.05593551  0.07310216  0.36432232    -0.97400
O195        O  0.98771356  0.10759488  0.25624090    -0.54600
O196        O  0.03984534  0.04467589  0.25519303    -0.74000
C197        C  0.04559161  0.02716185  0.21212253     0.98400
O198        O  0.12173397  0.04662611  0.08483479    -0.66000
O199        O  0.05698125  0.22138439  0.09728891    -0.57600
O200        O  0.08775245  0.10708221  0.06817678    -0.94300
O201        O  0.05381551  0.15638228  0.07487775    -0.92700
O202        O  0.16189376  0.22668566  0.10863160    -0.93100
O203        O  0.18787149  0.16274142  0.07732822    -0.91900
C204        C  0.06854670  0.13180057  0.04758420     1.17200
H205        H  0.11367462  0.22875468  0.18864830     0.33100
H206        H  0.18363085  0.10578268  0.17519230     0.44000
H207        H  0.03144112  0.10416789  0.16994715     0.37500
H208        H  0.10248707  0.13315529  0.35513328     0.34000
H209        H  0.24371213  0.18093384  0.16067224     0.25800
H210        H  0.12969183  0.06918641  0.37356295     0.31700
H211        H  0.04092565  0.05165266  0.35899111     0.37600
H212        H  0.18738817  0.23486594  0.10400986     0.32100
H213        H  0.03242850  0.23182717  0.09966172     0.31000
H214        H  0.98452307  0.18481829  0.13745443     0.32700
H215        H  0.97974788  0.13185474  0.26423878     0.31600
H216        H  0.17258179  0.14275330  0.06518026     0.35600
H217        H  0.09845792  0.04136992  0.06661014     0.28400
H218        H  0.10096009  0.24183148  0.38262581     0.32600
H219        H  0.02367208  0.15172435  0.36124090     0.35400
H220        H  0.07381862  0.24018279  0.10939388     0.28100
H221        H  0.13647387  0.06021539  0.05863682     0.40900
H222        H  0.23024106  0.09031777  0.31957767     0.31000
H223        H  0.23522808  0.14780416  0.19602364     0.38600
H224        H  0.97505673  0.09263477  0.28300871     0.30400
H225        H  0.14294300  0.04095629  0.33260646     0.30500
H226        H  0.07642689  0.20838888  0.39295430     0.30800
C227        C  0.24144548  0.18427036  0.69939288     0.86200
C228        C  0.22848034  0.19087807  0.64166636    -0.54000
C229        C  0.20641549  0.16493605  0.62124369     0.09200
C230        C  0.19840147  0.13500414  0.66149212     0.20100
C231        C  0.20676172  0.17814315  0.73206495    -0.54700
C232        C  0.18332960  0.15328652  0.71201520     0.09300
C233        C  0.25866385  0.14777673  0.69703053    -0.54300
C234        C  0.23650749  0.12227731  0.67693611     0.09800
H235        H  0.23782430  0.21322551  0.61809277     0.14400
H236        H  0.18033233  0.11400085  0.64576120     0.00100
H237        H  0.20209884  0.19201510  0.76916464     0.14700
H238        H  0.28605513  0.14143650  0.70899789     0.14400
Zr239      Zr  0.40681903  0.35425507  0.79537556     2.17500
O240        O  0.43677493  0.32525044  0.86996576    -0.51600
O241        O  0.35966219  0.30852800  0.78135256    -0.74800
O242        O  0.37426597  0.36397028  0.88042863    -0.81600
O243        O  0.48345322  0.32268010  0.70604738    -0.83300
O244        O  0.34539061  0.41636074  0.87419209    -0.78900
O245        O  0.44823772  0.30514991  0.77610064    -0.90600
O246        O  0.32765616  0.32370443  0.70747573    -0.76500
O247        O  0.35265453  0.38008245  0.76145139    -0.86000
O248        O  0.40878303  0.34771520  0.70081407    -0.85700
O249        O  0.41095555  0.41584482  0.81940633    -0.72500
O250        O  0.46133294  0.38522129  0.76598064    -0.84600
Zr251      Zr  0.40876628  0.46558897  0.66025357     2.26400
Zr252      Zr  0.35573961  0.44069552  0.78589541     2.06300
Zr253      Zr  0.46209910  0.37879916  0.67141913     2.10000
Zr254      Zr  0.35528455  0.37413399  0.66695517     1.78800
O255        O  0.52730507  0.39056801  0.67448096    -0.93400
O256        O  0.28977044  0.38306324  0.66137777    -0.41200
O257        O  0.40797226  0.40460422  0.63675168    -0.77900
O258        O  0.35526562  0.43441918  0.69091651    -0.96500
O259        O  0.40806590  0.47274111  0.75460517    -0.89800
O260        O  0.46441891  0.44059539  0.69157555    -0.92700
C261        C  0.33380129  0.30375322  0.74735688     1.01100
C262        C  0.47404949  0.30012092  0.74198481     1.14000
C263        C  0.35447051  0.38869704  0.90023162     1.04800
O264        O  0.29106744  0.42655948  0.79140487    -0.94800
O265        O  0.32446450  0.48942196  0.74493714    -0.90600
O266        O  0.35295519  0.99958323  0.66705949    -0.83700
C267        C  0.32617584  0.00405221  0.69971388     1.11400
O268        O  0.49504116  0.43081580  0.86666070    -0.96800
Zr269      Zr  0.46300540  0.44733272  0.78561130     1.88900
O270        O  0.44804189  0.01718765  0.68077796    -0.73500
O271        O  0.35187862  0.49085402  0.84588510    -0.52700
O272        O  0.45624941  0.48494874  0.86341429    -0.97400
O273        O  0.52795669  0.44478935  0.76568392    -0.54600
O274        O  0.47705112  0.50701837  0.75520166    -0.74000
C275        C  0.46896766  0.02740777  0.71883918     0.98400
O276        O  0.39614947  0.50721750  0.58843049    -0.62800
O277        O  0.46991928  0.33690586  0.59872954    -0.57600
O278        O  0.42783330  0.44443093  0.57193474    -0.94300
O279        O  0.46925272  0.40078158  0.58199403    -0.92700
O280        O  0.37009362  0.32995525  0.60030890    -0.93100
O281        O  0.33126212  0.38973237  0.57970299    -0.91900
C282        C  0.45105062  0.42230209  0.55352066     1.17200
H283        H  0.40952770  0.32321886  0.69073246     0.33100
H284        H  0.33301979  0.44269994  0.67514952     0.44000
H285        H  0.48543824  0.45193459  0.67546870     0.37500
H286        H  0.41248029  0.41832291  0.85761409     0.34000
H287        H  0.27994458  0.36112500  0.64552215     0.25800
H288        H  0.32851237  0.48758589  0.86516259     0.31700
H289        H  0.43925881  0.50356937  0.85200229     0.37600
H290        H  0.38817495  0.34169729  0.57667402     0.32100
H291        H  0.49408370  0.32616641  0.60418031     0.31000
H292        H  0.53851744  0.36953811  0.65822358     0.32700
H293        H  0.53583841  0.42146481  0.77874678     0.31600
H294        H  0.34553951  0.41077252  0.56871771     0.35600
H295        H  0.41982204  0.51202215  0.57070345     0.28400
H296        H  0.41773033  0.31055362  0.88735649     0.32600
H297        H  0.49206014  0.40493136  0.86890645     0.35400
H298        H  0.45219154  0.31772459  0.60617417     0.28100
H299        H  0.38157963  0.49404117  0.56185624     0.40900
H300        H  0.28279811  0.43718796  0.82532321     0.31000
H301        H  0.28114425  0.38248169  0.69883372     0.38600
H302        H  0.53939861  0.46189718  0.79032926     0.30400
H303        H  0.37083387  0.48671969  0.87308091     0.30500
H304        H  0.44220675  0.34420877  0.89583728     0.30800
C305        C  0.28188561  0.36026634  0.20621576     0.86200
C306        C  0.29242862  0.35431555  0.14717865    -0.54000
C307        C  0.31143012  0.38165298  0.12433907     0.09200
C308        C  0.31762565  0.41297488  0.16255701     0.20100
C309        C  0.31778904  0.36922547  0.23401178    -0.54700
C310        C  0.33651668  0.39661497  0.21128437     0.09300
C311        C  0.26075891  0.39492850  0.20458961    -0.54300
C312        C  0.27918380  0.42228492  0.18211625     0.09800
H313        H  0.28437329  0.33108349  0.12491024     0.14400
H314        H  0.33285727  0.43543517  0.14451906     0.00100
H315        H  0.32808405  0.35451548  0.26789294     0.14700
H316        H  0.23275395  0.39818259  0.21701837     0.14400
C317        C  0.34223658  0.38618942  0.95729488    -0.05700
C318        C  0.34895242  0.35563293  0.98754037    -0.33100
C319        C  0.33889354  0.35349163  0.04169678     0.36100
C320        C  0.32226745  0.38237061  0.06701849    -0.06100
C321        C  0.31546421  0.41270104  0.03711176    -0.33000
C322        C  0.32469801  0.41471342  0.98296307     0.36000
H323        H  0.36220819  0.33328977  0.96934458     0.16400
O324        O  0.34589577  0.32321973  0.06960506    -0.60500
H325        H  0.30221864  0.43496351  0.05561255     0.16400
O326        O  0.31699930  0.44521815  0.95607556    -0.60600
H327        H  0.29066789  0.44366187  0.94767717     0.43400
H328        H  0.37137427  0.32577281  0.08200504     0.43300
C329        C  0.26506643  0.21441417  0.72153642    -0.05700
C330        C  0.30171223  0.20989266  0.73737275    -0.33100
C331        C  0.32371447  0.23867913  0.75139765     0.36100
C332        C  0.30945971  0.27274054  0.75088118    -0.06100
C333        C  0.27235744  0.27715884  0.73977771    -0.33000
C334        C  0.25033748  0.24858359  0.72512313     0.36000
H335        H  0.31476144  0.18468902  0.73698335     0.16400
O336        O  0.35996980  0.23349511  0.76085771    -0.60500
H337        H  0.26089645  0.30334980  0.73907152     0.16400
O338        O  0.21453334  0.25452099  0.71280483    -0.60600
H339        H  0.21482131  0.26439018  0.67614432     0.43400
H340        H  0.37207283  0.23742648  0.72586683     0.43300
C341        C  0.25101610  0.08685706  0.66871826    -0.05700
C342        C  0.24095812  0.06015623  0.70431155    -0.33100
C343        C  0.26422060  0.03174157  0.71306621     0.36100
C344        C  0.29782737  0.02985730  0.68522890    -0.06100
C345        C  0.30523081  0.05449093  0.64471262    -0.33000
C346        C  0.28224086  0.08299724  0.63667936     0.36000
H347        H  0.21685656  0.06299085  0.72897530     0.16400
O348        O  0.25437542  0.00673729  0.75012188    -0.60500
H349        H  0.33019481  0.05322455  0.62166201     0.16400
O350        O  0.29186622  0.10854515  0.60029663    -0.60600
H351        H  0.31187723  0.12216162  0.61715993     0.43400
H352        H  0.25885468  0.01778490  0.78532754     0.43300
C353        C  0.17491990  0.16339836  0.45424786    -0.05700
C354        C  0.18551983  0.13236352  0.48050959    -0.33100
C355        C  0.19573852  0.13246414  0.53430500     0.36100
C356        C  0.19515507  0.16402130  0.56388311    -0.06100
C357        C  0.18496510  0.19519410  0.53763665    -0.33000
C358        C  0.17497809  0.19509960  0.48351309     0.36000
H359        H  0.18574575  0.10751646  0.45940766     0.16400
O360        O  0.20664484  0.10147693  0.55718368    -0.60500
H361        H  0.18446265  0.21981205  0.55929662     0.16400
O362        O  0.16537265  0.22620233  0.45981943    -0.60600
H363        H  0.18852409  0.23656925  0.44634661     0.43400
H364        H  0.23042152  0.09598890  0.54042231     0.43300
C365        C  0.21720531  0.27063468  0.25809371    -0.05700
C366        C  0.25286661  0.26589354  0.23880360    -0.33100
C367        C  0.27507469  0.29475213  0.22584541     0.36100
C368        C  0.26164539  0.32915895  0.23182490    -0.06100
C369        C  0.22857514  0.33341256  0.26016162    -0.33000
C370        C  0.20610161  0.30456566  0.27214458     0.36000
H371        H  0.26269021  0.23970633  0.23006913     0.16400
O372        O  0.30934397  0.28913548  0.20558492    -0.60500
H373        H  0.21891508  0.35889642  0.27213219     0.16400
O374        O  0.17241396  0.31017037  0.29414381    -0.60600
H375        H  0.15695608  0.31774582  0.26398525     0.43400
H376        H  0.30573539  0.27738556  0.17068795     0.43300
C377        C  0.26072758  0.45629606  0.17571158    -0.05700
C378        C  0.22942668  0.45747463  0.14389409    -0.33100
C379        C  0.20404696  0.48446183  0.14993297     0.36100
C380        C  0.21150888  0.01454775  0.18626224    -0.06100
C381        C  0.24268932  0.51092469  0.21738360    -0.33000
C382        C  0.26780537  0.48377209  0.21146356     0.36000
H383        H  0.22335888  0.43592773  0.11701343     0.16400
O384        O  0.17266674  0.48322743  0.12053198    -0.60500
H385        H  0.25208974  0.03639934  0.23974336     0.16400
O386        O  0.29750185  0.48272720  0.24425367    -0.60600
H387        H  0.31734107  0.49438007  0.22368341     0.43400
H388        H  0.15552466  0.46836370  0.14160453     0.43300
C389        C  0.07816864  0.13132019  0.78747053    -0.05700
C390        C  0.09631701  0.16408156  0.79255502    -0.33100
C391        C  0.12820597  0.17205258  0.76505757     0.36100
C392        C  0.14696690  0.14563273  0.73715050    -0.06100
C393        C  0.13094132  0.11188646  0.73473677    -0.33000
C394        C  0.09698098  0.10446356  0.75933256     0.36000
H395        H  0.08399891  0.18508726  0.81528522     0.16400
O396        O  0.13973136  0.20647977  0.76426640    -0.60500
H397        H  0.14502197  0.09077486  0.71465818     0.16400
O398        O  0.08360002  0.07071303  0.75690547    -0.60600
H399        H  0.10113703  0.05592200  0.77665445     0.43400
H400        H  0.12942890  0.21658500  0.73113355     0.43300
C401        C  0.05103480  0.13101557  0.87644661    -0.05700
C402        C  0.04447195  0.16159727  0.90682683    -0.33100
C403        C  0.05053067  0.16246923  0.96182532     0.36100
C404        C  0.06402391  0.13257680  0.98856601    -0.06100
C405        C  0.07495391  0.10375591  0.95776475    -0.33000
C406        C  0.07001176  0.10338727  0.90239810     0.36000
H407        H  0.03501688  0.18553331  0.88841839     0.16400
O408        O  0.04335875  0.19302842  0.98870692    -0.60500
H409        H  0.08721303  0.08107272  0.97652765     0.16400
O410        O  0.08147397  0.07451997  0.87453280    -0.60600
H411        H  0.10829685  0.07721142  0.87179821     0.43400
H412        H  0.06605795  0.20725034  0.98579314     0.43300
C413        C  0.43981941  0.41373185  0.28569694    -0.05700
C414        C  0.43603280  0.38933730  0.24331056    -0.33100
C415        C  0.40278956  0.38441709  0.21746335     0.36100
C416        C  0.37339451  0.40620689  0.22950807    -0.06100
C417        C  0.37868977  0.43463176  0.26386464    -0.33000
C418        C  0.41191914  0.43931583  0.29044403     0.36000
H419        H  0.45803045  0.37228862  0.23158324     0.16400
O420        O  0.39888651  0.35734494  0.18178443    -0.60500
H421        H  0.35643434  0.45211266  0.27268446     0.16400
O422        O  0.41505840  0.46697185  0.32497504    -0.60600
H423        H  0.41988229  0.48783584  0.30206803     0.43400
H424        H  0.39241534  0.33642343  0.20372062     0.43300
C425        C  0.45579419  0.41932204  0.49568260    -0.05700
C426        C  0.42537868  0.41385066  0.46314254    -0.33100
C427        C  0.42935329  0.40838040  0.40799608     0.36100
C428        C  0.46461124  0.41018683  0.38435818    -0.06100
C429        C  0.49493521  0.41165140  0.41911198    -0.33000
C430        C  0.49073349  0.41692743  0.47366517     0.36000
H431        H  0.39843698  0.41257832  0.48089954     0.16400
O432        O  0.39927722  0.39841754  0.37923712    -0.60500
H433        H  0.52236616  0.41171194  0.40308274     0.16400
O434        O  0.52103891  0.42092863  0.50497766    -0.60600
H435        H  0.52964804  0.44539684  0.49853164     0.43400
H436        H  0.38037091  0.41634835  0.38623572     0.43300
C437        C  0.98143969  0.02765482  0.78872009    -0.05700
C438        C  0.99157780  0.04906705  0.74519632    -0.33100
C439        C  0.00900431  0.08197201  0.75326357     0.36100
C440        C  0.01819754  0.09337115  0.80549633    -0.06100
C441        C  0.00337721  0.07340651  0.84827892    -0.33000
C442        C  0.98610423  0.04108878  0.84042991     0.36000
H443        H  0.98685489  0.03995875  0.70489196     0.16400
O444        O  0.01862274  0.10192855  0.70970838    -0.60500
H445        H  0.00448517  0.08262370  0.88893569     0.16400
O446        O  0.96604621  0.52571898  0.88077550    -0.60600
H447        H  0.93970418  0.53087822  0.87773067     0.43400
H448        H  0.99568282  0.11283736  0.69747204     0.43300
C449        C  0.01476580  0.15894046  0.79841751    -0.05700
C450        C  0.02343069  0.18132738  0.75479488    -0.33100
C451        C  0.00782793  0.21466220  0.74955176     0.36100
C452        C  0.98074154  0.22559648  0.78573020    -0.06100
C453        C  0.96685664  0.20049540  0.82215363    -0.33000
C454        C  0.98279440  0.16721067  0.82753028     0.36000
H455        H  0.04410555  0.17422485  0.72604637     0.16400
O456        O  0.02095161  0.23689980  0.71068195    -0.60500
H457        H  0.94433012  0.20701884  0.84823252     0.16400
O458        O  0.96941810  0.14472209  0.86583588    -0.60600
H459        H  0.94954771  0.13143558  0.84809270     0.43400
H460        H  0.00547706  0.23234968  0.67908839     0.43300
C461        C  0.82554773  0.40971629  0.44477558    -0.05700
C462        C  0.83889789  0.43913494  0.47265263    -0.33100
C463        C  0.84888320  0.43668801  0.52642802     0.36100
C464        C  0.84590860  0.40420587  0.55368426    -0.06100
C465        C  0.83337831  0.37458563  0.52517309    -0.33000
C466        C  0.82305692  0.37717625  0.47150603     0.36000
H467        H  0.84127216  0.46438720  0.45271496     0.16400
O468        O  0.86107628  0.46641504  0.55183786    -0.60500
H469        H  0.83111928  0.34915567  0.54460116     0.16400
O470        O  0.80947578  0.34795877  0.44620726    -0.60600
H471        H  0.78505370  0.34382760  0.46215653     0.43400
H472        H  0.83917882  0.47658141  0.56895723     0.43300
C473        C  0.75373900  0.06043128  0.79106610    -0.05700
C474        C  0.78361040  0.06483769  0.75555558    -0.33100
C475        C  0.80703976  0.03697834  0.74387125     0.36100
C476        C  0.80007782  0.00366835  0.76598433    -0.06100
C477        C  0.76670503  0.99790751  0.79278843    -0.33000
C478        C  0.74354993  0.02582334  0.80511917     0.36000
H479        H  0.78988572  0.09014262  0.73786727     0.16400
O480        O  0.83794312  0.04339473  0.71443481    -0.60500
H481        H  0.75937397  0.97182275  0.80700839     0.16400
O482        O  0.71118505  0.01904689  0.83096696    -0.60600
H483        H  0.71771669  0.00845038  0.86581966     0.43400
H484        H  0.83161379  0.03644299  0.67749176     0.43300
C485        C  0.75882394  0.18861888  0.83290839    -0.05700
C486        C  0.74930065  0.21365136  0.79467251    -0.33100
C487        C  0.77255326  0.24204171  0.78376832     0.36100
C488        C  0.80547261  0.24570229  0.81228545    -0.06100
C489        C  0.81359529  0.22146524  0.85287989    -0.33000
C490        C  0.79076574  0.19280432  0.86272876     0.36000
H491        H  0.72494327  0.20999501  0.77097783     0.16400
O492        O  0.76282030  0.26590582  0.74532180    -0.60500
H493        H  0.83844696  0.22380778  0.87576708     0.16400
O494        O  0.80032371  0.16831755  0.90041047    -0.60600
H495        H  0.81971247  0.15407705  0.88354940     0.43400
H496        H  0.76771312  0.25412781  0.71078965     0.43300
C497        C  0.49469398  0.44827704  0.31314926    -0.05700
C498        C  0.51337139  0.45399442  0.26423961    -0.33100
C499        C  0.52805486  0.98495430  0.25407523     0.36100
C500        C  0.52792876  0.01288160  0.29111044    -0.06100
C501        C  0.51026707  0.00731416  0.33989661    -0.33000
C502        C  0.49323659  0.97567404  0.35297943     0.36000
H503        H  0.51413003  0.43319314  0.23482773     0.16400
O504        O  0.54452889  0.98899222  0.20525657    -0.60500
H505        H  0.50866172  0.02816489  0.36909773     0.16400
O506        O  0.47279229  0.97578811  0.39898011    -0.60600
H507        H  0.49015704  0.97990993  0.42860738     0.43400
H508        H  0.53217161  0.49722449  0.17900334     0.43300
C509        C  0.49535785  0.37778938  0.31479388    -0.05700
C510        C  0.53314626  0.37680676  0.30356700    -0.33100
C511        C  0.55154459  0.34453454  0.29781152     0.36100
C512        C  0.53239586  0.31237367  0.30238025    -0.06100
C513        C  0.49553048  0.31292903  0.31533055    -0.33000
C514        C  0.47729752  0.34469374  0.32283426     0.36000
H515        H  0.54909935  0.40074219  0.30109161     0.16400
O516        O  0.58817436  0.34473620  0.28706481    -0.60500
H517        H  0.48076731  0.28835977  0.32097791     0.16400
O518        O  0.44160344  0.34317830  0.33928684    -0.60600
H519        H  0.42796400  0.33130237  0.31028591     0.43400
H520        H  0.60011832  0.34584714  0.32243397     0.43300
C521        C  0.69234701  0.12243981  0.94903937    -0.05700
C522        C  0.67558634  0.09413534  0.97602650    -0.33100
C523        C  0.66548268  0.09680648  0.02997015     0.36100
C524        C  0.67168176  0.12846498  0.05826074    -0.06100
C525        C  0.68856837  0.15668177  0.03104247    -0.33000
C526        C  0.69920541  0.15378540  0.97745488     0.36000
H527        H  0.67016678  0.06974802  0.95510452     0.16400
O528        O  0.64965355  0.06816468  0.05438038    -0.60500
H529        H  0.69376875  0.18135009  0.05130831     0.16400
O530        O  0.71698447  0.18163045  0.95370812    -0.60600
H531        H  0.74148884  0.18236653  0.97015873     0.43400
H532        H  0.66993209  0.05581559  0.07226613     0.43300
C533        C  0.69817362  0.02110525  0.27139193    -0.05700
C534        C  0.69210665  0.99685888  0.31246204    -0.33100
C535        C  0.72013208  0.47433127  0.33421982     0.36100
C536        C  0.75160247  0.47039907  0.30211125    -0.06100
C537        C  0.75825584  0.99654740  0.25723141    -0.33000
C538        C  0.73136619  0.02089574  0.24348898     0.36000
H539        H  0.67152843  0.50348826  0.34831896     0.16400
O540        O  0.71414171  0.45332996  0.37811854    -0.60500
H541        H  0.78308857  0.99699892  0.23422008     0.16400
O542        O  0.73842496  0.04542604  0.20445206    -0.60600
H543        H  0.74771538  0.06647705  0.22354338     0.43400
H544        H  0.71702932  0.46900147  0.40944692     0.43300
C545        C  0.71797661  0.28516732  0.31513254    -0.05700
C546        C  0.74550429  0.29104032  0.27653682    -0.33100
C547        C  0.76946905  0.31971811  0.28066016     0.36100
C548        C  0.76618800  0.34292081  0.32375226    -0.06100
C549        C  0.74058540  0.33596525  0.36394236    -0.33000
C550        C  0.71701088  0.30709214  0.36054085     0.36000
H551        H  0.74748773  0.27439944  0.24164575     0.16400
O552        O  0.79361869  0.32662746  0.23999460    -0.60500
H553        H  0.73735550  0.35430937  0.39661624     0.16400
O554        O  0.69176625  0.30204556  0.40031738    -0.60600
H555        H  0.70526101  0.29081183  0.42992537     0.43400
H556        H  0.81780173  0.32005941  0.25416445     0.43300
C557        C  0.58384866  0.16373676  0.72336603    -0.05700
C558        C  0.61716837  0.16267521  0.69482542    -0.33100
C559        C  0.64971009  0.15352968  0.72005428     0.36100
C560        C  0.65000447  0.14659890  0.77505748    -0.06100
C561        C  0.61873729  0.15338588  0.80516187    -0.33000
C562        C  0.58603863  0.16241744  0.78007302     0.36000
H563        H  0.61858181  0.16830918  0.65267572     0.16400
O564        O  0.68142869  0.15245207  0.69096660    -0.60500
H565        H  0.61913996  0.15004366  0.84809766     0.16400
O566        O  0.55585276  0.16826223  0.81116601    -0.60600
H567        H  0.54813382  0.14486089  0.82487950     0.43400
H568        H  0.67932216  0.13121485  0.66825440     0.43300
C569        C  0.52321214  0.13084621  0.70685756    -0.05700
C570        C  0.53893964  0.10163180  0.73358490    -0.33100
C571        C  0.52141196  0.06889007  0.73822511     0.36100
C572        C  0.48715267  0.06298931  0.71493644    -0.06100
C573        C  0.47104194  0.09125948  0.68754539    -0.33000
C574        C  0.48833042  0.12472854  0.68389155     0.36000
H575        H  0.56624858  0.10248630  0.74896322     0.16400
O576        O  0.53918905  0.04218665  0.76395503    -0.60500
H577        H  0.44479726  0.08748577  0.66877028     0.16400
O578        O  0.47179457  0.15075130  0.65494357    -0.60600
H579        H  0.44942105  0.15676854  0.67511705     0.43400
H580        H  0.55415575  0.03071153  0.73606165     0.43300
C581        C  0.52857691  0.20048829  0.71676494    -0.05700
C582        C  0.49504379  0.20134603  0.74445155    -0.33100
C583        C  0.47777097  0.23352657  0.75646357     0.36100
C584        C  0.49406773  0.26586902  0.74143695    -0.06100
C585        C  0.52942843  0.26515587  0.72018360    -0.33000
C586        C  0.54690045  0.23334796  0.70897293     0.36000
H587        H  0.48150367  0.17717953  0.75619038     0.16400
O588        O  0.44462805  0.23303443  0.78185026    -0.60500
H589        H  0.54341827  0.28957841  0.71042468     0.16400
O590        O  0.58147039  0.23465428  0.68779735    -0.60600
H591        H  0.57937300  0.24651038  0.65265680     0.43400
H592        H  0.42859766  0.21807003  0.75954740     0.43300
C593        C  0.56148118  0.17345255  0.52039310    -0.05700
C594        C  0.57164395  0.14307265  0.54823690    -0.33100
C595        C  0.56569732  0.13984029  0.60329891     0.36100
C596        C  0.54964785  0.16770978  0.63269363    -0.06100
C597        C  0.53600820  0.19641051  0.60236691    -0.33000
C598        C  0.54317775  0.20003895  0.54771190     0.36000
H599        H  0.58466596  0.12168444  0.52716273     0.16400
O600        O  0.57714929  0.10979664  0.62836978    -0.60500
H601        H  0.51945843  0.21658998  0.62009292     0.16400
O602        O  0.53034311  0.22883265  0.52081965    -0.60600
H603        H  0.55000969  0.24678634  0.52338805     0.43400
H604        H  0.55930300  0.09127724  0.61821326     0.43300
C605        C  0.93964536  0.39456845  0.21657192    -0.05700
C606        C  0.93441607  0.38346148  0.27004907    -0.33100
C607        C  0.90193618  0.38999923  0.29784622     0.36100
C608        C  0.87318305  0.40758524  0.27234226    -0.06100
C609        C  0.87963981  0.42146162  0.22103165    -0.33000
C610        C  0.91304170  0.41727197  0.19515061     0.36000
H611        H  0.95576564  0.36999983  0.29131613     0.16400
O612        O  0.89975022  0.38116865  0.35087581    -0.60500
H613        H  0.85881191  0.43577631  0.19999532     0.16400
O614        O  0.91846652  0.43402590  0.14723125    -0.60600
H615        H  0.92341117  0.45898787  0.15638745     0.43400
H616        H  0.90105174  0.35511158  0.35221845     0.43300
C617        C  0.99419541  0.35307366  0.21064008    -0.05700
C618        C  0.03146215  0.35259145  0.22467640    -0.33100
C619        C  0.04911668  0.32079761  0.23754516     0.36100
C620        C  0.02979220  0.28854856  0.23706740    -0.06100
C621        C  0.99243515  0.28917156  0.22674446    -0.33000
C622        C  0.97468702  0.32051413  0.21411707     0.36000
H623        H  0.04789032  0.37625607  0.22195191     0.16400
O624        O  0.08588526  0.32130959  0.24647143    -0.60500
H625        H  0.97695932  0.26475508  0.22611764     0.16400
O626        O  0.93841962  0.31855020  0.20137020    -0.60600
H627        H  0.92549115  0.31325329  0.23530827     0.43400
H628        H  0.09712717  0.31496692  0.21179333     0.43300
C629        C  0.99750041  0.42154412  0.18726934    -0.05700
C630        C  0.00847091  0.43441982  0.23781074    -0.33100
C631        C  0.02274577  0.46866424  0.24485832     0.36100
C632        C  0.02794876  0.49125653  0.20079234    -0.06100
C633        C  0.01774361  0.47892211  0.15043111    -0.33000
C634        C  0.00180884  0.44544265  0.14326912     0.36000
H635        H  0.00466959  0.41809038  0.27287575     0.16400
O636        O  0.03213311  0.47948151  0.29513225    -0.60500
H637        H  0.01962832  0.99877817  0.12220594     0.16400
O638        O  0.98701848  0.43862425  0.09415700    -0.60600
H639        H  0.00740103  0.44014471  0.06811775     0.43400
H640        H  0.00904382  0.48727551  0.31181972     0.43300
C641        C  0.96807681  0.37313278  0.12671537    -0.05700
C642        C  0.93280811  0.36487474  0.10733230    -0.33100
C643        C  0.92676384  0.35703987  0.05350832     0.36100
C644        C  0.95608303  0.35658348  0.01741289    -0.06100
C645        C  0.99152461  0.36002249  0.03718100    -0.33000
C646        C  0.99775334  0.36694166  0.09140359     0.36000
H647        H  0.90931302  0.36463470  0.13332029     0.16400
O648        O  0.89171922  0.35245927  0.03599879    -0.60500
H649        H  0.01453377  0.35833896  0.01014949     0.16400
O650        O  0.03300184  0.36906264  0.10922576    -0.60600
H651        H  0.04409491  0.38985114  0.09133499     0.43400
H652        H  0.88718272  0.32671745  0.03777601     0.43300
C653        C  0.97629485  0.88616841  0.18357397    -0.02700
C654        C  0.54481941  0.66580619  0.69637430    -0.02700
Zr655      Zr  0.60982528  0.60531297  0.22326859     2.17500
O656        O  0.57603819  0.57654007  0.15186998    -0.51600
O657        O  0.65644357  0.56060908  0.23731260    -0.74800
O658        O  0.64219702  0.61099072  0.13841037    -0.81600
O659        O  0.53973606  0.57337696  0.31569261    -0.83300
O660        O  0.67267628  0.66314964  0.13945297    -0.78900
O661        O  0.57187744  0.55415660  0.24456167    -0.90600
O662        O  0.68273501  0.57303869  0.31714504    -0.76500
O663        O  0.66461962  0.63254950  0.25364089    -0.86000
O664        O  0.60902036  0.60124625  0.31840409    -0.85700
O665        O  0.60550360  0.66563405  0.19412122    -0.72500
O666        O  0.55571263  0.63629388  0.25124141    -0.84600
Zr667      Zr  0.61031063  0.71867482  0.35239896     2.26400
Zr668      Zr  0.66082515  0.69224449  0.22432126     2.06300
Zr669      Zr  0.55601062  0.63222126  0.34604027     2.10000
Zr670      Zr  0.66331795  0.62886779  0.34865081     1.78800
O671        O  0.49206741  0.64725580  0.33651860    -0.93400
O672        O  0.72914960  0.63567252  0.34147558    -0.41200
O673        O  0.61077400  0.65833720  0.37982714    -0.77900
O674        O  0.66319192  0.68818268  0.31993910    -0.96500
O675        O  0.60959411  0.72425841  0.25750722    -0.89800
O676        O  0.55411107  0.69334847  0.32240061    -0.92700
C677        C  0.67802492  0.55379224  0.27614942     1.01100
C678        C  0.54807978  0.54953512  0.28156715     1.14000
C679        C  0.66281678  0.63440519  0.11638444     1.04800
O680        O  0.72644204  0.68728290  0.21312947    -0.94800
O681        O  0.69087113  0.74377618  0.25949804    -0.90600
O682        O  0.66366318  0.75702112  0.33837498    -0.83700
C683        C  0.68824447  0.76205844  0.30221985     1.11400
O684        O  0.52432479  0.68550789  0.14334485    -0.96800
Zr685      Zr  0.55451331  0.69793150  0.22772326     1.88900
O686        O  0.57146260  0.76846996  0.33320257    -0.73500
O687        O  0.65571478  0.73735876  0.15560362    -0.52700
O688        O  0.56782252  0.73626816  0.15197156    -0.97400
O689        O  0.48898762  0.69041039  0.23989022    -0.54600
O690        O  0.53707820  0.75593947  0.26042273    -0.74000
C691        C  0.54742866  0.77633561  0.29837862     0.98400
O692        O  0.62897123  0.75919519  0.42275447    -0.62800
O693        O  0.53355542  0.59483056  0.41853158    -0.57600
O694        O  0.58542558  0.70366393  0.44212837    -0.94300
O695        O  0.55503667  0.65139024  0.43739697    -0.92700
O696        O  0.65663290  0.59012814  0.42581441    -0.93100
O697        O  0.68986091  0.65200746  0.43038096    -0.91900
C698        C  0.56725171  0.67787828  0.46331951     1.17200
H699        H  0.60850815  0.57716087  0.33064647     0.33100
H700        H  0.68571716  0.69770931  0.33362416     0.44000
H701        H  0.53341906  0.70485128  0.33829624     0.37500
H702        H  0.60396376  0.66674942  0.15577535     0.34000
H703        H  0.73905932  0.61467550  0.35962468     0.25800
H704        H  0.64468512  0.75774793  0.17389359     0.31700
H705        H  0.57472186  0.75919865  0.16779987     0.37600
H706        H  0.65120344  0.56651250  0.41113587     0.32100
H707        H  0.50867086  0.58748286  0.40807382     0.31000
H708        H  0.48503470  0.65681478  0.37175827     0.32700
H709        H  0.48298933  0.66725525  0.22397571     0.31600
H710        H  0.68254452  0.67702615  0.43123146     0.35600
H711        H  0.60625899  0.76763124  0.43965608     0.28400
H712        H  0.59353514  0.56052306  0.13442785     0.32600
H713        H  0.53454484  0.66276933  0.13159399     0.35400
H714        H  0.54827907  0.57313684  0.41713103     0.28100
H715        H  0.64097221  0.74460482  0.45023130     0.40900
H716        H  0.73103421  0.66165816  0.21220331     0.31000
H717        H  0.73464776  0.63189892  0.30324724     0.38600
H718        H  0.47772062  0.70789839  0.21585721     0.30400
H719        H  0.68113197  0.74487685  0.14830639     0.30500
H720        H  0.57148780  0.59526911  0.12524472     0.30800
C721        C  0.73307078  0.59380586  0.81377758     0.86200
C722        C  0.72050667  0.59013981  0.87257725    -0.54000
C723        C  0.70381339  0.61944911  0.89268301     0.09200
C724        C  0.70100323  0.64973973  0.85180329     0.20100
C725        C  0.69901742  0.60453778  0.78301518    -0.54700
C726        C  0.68223529  0.63377425  0.80256248     0.09300
C727        C  0.75725002  0.62689042  0.81497517    -0.54300
C728        C  0.74056716  0.65590829  0.83425766     0.09800
H729        H  0.72654772  0.56749186  0.89732859     0.14400
H730        H  0.68741988  0.67371541  0.86704014     0.00100
H731        H  0.68904546  0.59018785  0.74855189     0.14700
H732        H  0.78566019  0.62778242  0.80312213     0.14400
Zr733      Zr  0.90609305  0.93389516  0.72050268     2.17500
O734        O  0.93720094  0.96678251  0.64994288    -0.51600
O735        O  0.85442443  0.97420680  0.73475753    -0.74800
O736        O  0.87478104  0.92647969  0.63486147    -0.81600
O737        O  0.97592998  0.96845631  0.81660580    -0.83300
O738        O  0.84462002  0.87401407  0.63712540    -0.78900
O739        O  0.94366278  0.98526844  0.74381056    -0.90600
O740        O  0.82478744  0.95559692  0.80930585    -0.76500
O741        O  0.85292897  0.90477697  0.75321004    -0.86000
O742        O  0.90936792  0.93680867  0.81565256    -0.85700
O743        O  0.91115538  0.87379164  0.68983453    -0.72500
O744        O  0.96158144  0.90377157  0.74510063    -0.84600
Zr745      Zr  0.91200283  0.81959527  0.84568979     2.26400
Zr746      Zr  0.85692715  0.84554550  0.72248791     2.06300
Zr747      Zr  0.96423927  0.90698223  0.83985348     2.10000
Zr748      Zr  0.85641636  0.90769913  0.84793177     1.78800
O749        O  0.02767119  0.89876237  0.81453779    -0.93400
O750        O  0.79220108  0.89154981  0.85429563    -0.41200
O751        O  0.91062730  0.87937961  0.87501798    -0.77900
O752        O  0.85716039  0.84863579  0.81832908    -0.96500
O753        O  0.91006233  0.81472619  0.75088781    -0.89800
O754        O  0.96707628  0.84644698  0.81364514    -0.92700
C755        C  0.82830535  0.97608823  0.76927537     1.01100
C756        C  0.96627899  0.99146039  0.78181950     1.14000
C757        C  0.85458569  0.90258066  0.61328788     1.04800
O758        O  0.79104118  0.85175833  0.71931789    -0.94800
O759        O  0.82936083  0.79280413  0.75980198    -0.90600
O760        O  0.85917840  0.78088434  0.83680923    -0.83700
C761        C  0.83368912  0.77510223  0.80292002     1.11400
O762        O  0.99680570  0.86918888  0.64404949    -0.96800
Zr763      Zr  0.96394947  0.84276479  0.71887426     1.88900
O764        O  0.95028359  0.77039088  0.82093156    -0.73500
O765        O  0.85748717  0.80211166  0.65115985    -0.52700
O766        O  0.95254057  0.81066561  0.63653343    -0.97400
O767        O  0.03004018  0.84007643  0.72626080    -0.54600
O768        O  0.97561643  0.78114067  0.74000065    -0.74000
C769        C  0.96863954  0.76084192  0.77988385     0.98400
O770        O  0.90519278  0.77915302  0.92101438    -0.62800
O771        O  0.98819091  0.93936842  0.91613570    -0.57600
O772        O  0.93273733  0.83546961  0.93552941    -0.94300
O773        O  0.97256628  0.88129507  0.92799790    -0.92700
O774        O  0.86153954  0.95697107  0.90946911    -0.93100
O775        O  0.84021520  0.88930216  0.93810445    -0.91900
C776        C  0.95570337  0.85759672  0.95535337     1.17200
H777        H  0.90884850  0.96077519  0.82834471     0.33100
H778        H  0.83536400  0.83860201  0.83384502     0.44000
H779        H  0.98820677  0.83494147  0.82814831     0.37500
H780        H  0.91230907  0.87290341  0.65150908     0.34000
H781        H  0.78020627  0.91255282  0.86938346     0.25800
H782        H  0.86538004  0.77995720  0.66827556     0.31700
H783        H  0.93407368  0.79261284  0.64623517     0.37600
H784        H  0.88371344  0.95207860  0.93045400     0.32100
H785        H  0.00921639  0.95329134  0.90265084     0.31000
H786        H  0.04150115  0.90254504  0.84786852     0.32700
H787        H  0.03698866  0.81962467  0.70414015     0.31600
H788        H  0.84619932  0.86394896  0.93929432     0.35600
H789        H  0.88018911  0.78273244  0.93484177     0.28400
H790        H  0.91817317  0.98102643  0.63250815     0.32600
H791        H  0.97790416  0.88115424  0.62276644     0.35400
H792        H  0.96930939  0.95689753  0.92484964     0.28100
H793        H  0.90483357  0.75520953  0.90552544     0.40900
H794        H  0.78702037  0.87694844  0.71129661     0.31000
H795        H  0.78380509  0.89064705  0.81684490     0.38600
H796        H  0.03493397  0.83241552  0.76326319     0.30400
H797        H  0.83148494  0.79806848  0.64266070     0.30500
H798        H  0.94409728  0.94891495  0.62313962     0.30800
C799        C  0.78027156  0.94458215  0.31512080     0.86200
C800        C  0.79123786  0.94493510  0.37427428    -0.54000
C801        C  0.81220252  0.91714078  0.38986083     0.09200
C802        C  0.82066200  0.89145616  0.34353097     0.20100
C803        C  0.81694279  0.94301513  0.28550420    -0.54700
C804        C  0.83835884  0.91488857  0.29925179     0.09300
C805        C  0.76286059  0.90864941  0.30563987    -0.54300
C806        C  0.78323603  0.88112127  0.32109642     0.09800
H807        H  0.78242128  0.96524652  0.40170658     0.14400
H808        H  0.83640941  0.86808438  0.35522544     0.00100
H809        H  0.82585279  0.96282158  0.25733401     0.14700
H810        H  0.73556176  0.90515744  0.28971606     0.14400
C811        C  0.47200536  0.91126764  0.32746398    -0.02700
C812        C  0.03991683  0.62563803  0.81168552    -0.02700
Zr813      Zr  0.11143282  0.69589147  0.28931361     2.17500
O814        O  0.07786236  0.72278634  0.36249885    -0.51600
O815        O  0.16133424  0.73935091  0.28122875    -0.74800
O816        O  0.14257415  0.68618244  0.37447079    -0.81600
O817        O  0.03931670  0.73149724  0.19750554    -0.83300
O818        O  0.17037917  0.63316677  0.36914184    -0.78900
O819        O  0.07453155  0.74765559  0.26787299    -0.90600
O820        O  0.19584463  0.72242237  0.21064336    -0.76500
O821        O  0.16506451  0.66719631  0.25891563    -0.86000
O822        O  0.11303712  0.70348652  0.19486021    -0.85700
O823        O  0.10327256  0.63458248  0.31372721    -0.72500
O824        O  0.05677827  0.66782161  0.25572046    -0.84600
Zr825      Zr  0.10796289  0.58673894  0.15332251     2.26400
Zr826      Zr  0.15761303  0.60673147  0.28306404     2.06300
Zr827      Zr  0.05930453  0.67550039  0.16143242     2.10000
Zr828      Zr  0.16638098  0.67491291  0.16473270     1.78800
O829        O  0.99328019  0.66911573  0.16205073    -0.93400
O830        O  0.23111230  0.66165035  0.16159650    -0.41200
O831        O  0.11321494  0.64774033  0.12913980    -0.77900
O832        O  0.16209032  0.61448452  0.18830426    -0.96500
O833        O  0.10497195  0.57802180  0.24747730    -0.89800
O834        O  0.05270166  0.61397148  0.18200454    -0.92700
C835        C  0.18923430  0.74262388  0.25014825     1.01100
C836        C  0.04935335  0.75355613  0.23342585     1.14000
C837        C  0.16195024  0.66133719  0.39443741     1.04800
O838        O  0.22267074  0.60823333  0.30110692    -0.94800
O839        O  0.18628404  0.55618721  0.24257848    -0.90600
O840        O  0.15837751  0.54546686  0.16355980    -0.83700
C841        C  0.18287166  0.53906648  0.19877766     1.11400
O842        O  0.01773300  0.62930296  0.35266551    -0.96800
Zr843      Zr  0.05072540  0.60597593  0.27615379     1.88900
O844        O  0.06424697  0.53867061  0.16722055    -0.73500
O845        O  0.14791230  0.55885867  0.34642012    -0.52700
O846        O  0.05135825  0.56880099  0.35536306    -0.97400
O847        O  0.98633156  0.60795022  0.25330493    -0.54600
O848        O  0.03764053  0.54538429  0.24828667    -0.74000
C849        C  0.04421499  0.52741359  0.20594705     0.98400
O850        O  0.12699365  0.54738882  0.08180499    -0.66000
O851        O  0.05658564  0.72027635  0.09170692    -0.57600
O852        O  0.08704717  0.60478903  0.06444939    -0.94300
O853        O  0.05315112  0.65414774  0.07111373    -0.92700
O854        O  0.16293994  0.72491156  0.10403138    -0.93100
O855        O  0.18649519  0.65758679  0.07601538    -0.91900
C856        C  0.06741557  0.62924250  0.04394149     1.17200
H857        H  0.11400855  0.72807705  0.18519595     0.33100
H858        H  0.18409205  0.60446636  0.17398439     0.44000
H859        H  0.03172234  0.60378263  0.16463533     0.37500
H860        H  0.10097092  0.63231446  0.35191903     0.34000
H861        H  0.24270380  0.68309614  0.14643803     0.25800
H862        H  0.17242291  0.55411174  0.36092726     0.31700
H863        H  0.07064918  0.55137074  0.34830908     0.37600
H864        H  0.14156381  0.71975576  0.08133506     0.32100
H865        H  0.03142328  0.72939174  0.09301438     0.31000
H866        H  0.98761952  0.65497503  0.12999015     0.32700
H867        H  0.97929423  0.63281484  0.25836931     0.31600
H868        H  0.17900655  0.63256976  0.07296897     0.35600
H869        H  0.10441811  0.53966094  0.06367385     0.28400
H870        H  0.09584114  0.73758616  0.38164162     0.32600
H871        H  0.01468030  0.65463994  0.34465696     0.35400
H872        H  0.07207569  0.73999323  0.10431035     0.28100
H873        H  0.14013818  0.56231440  0.05546923     0.40900
H874        H  0.23434679  0.61038349  0.26558198     0.31000
H875        H  0.23879784  0.66142890  0.19939391     0.38600
H876        H  0.97378295  0.59503306  0.28251017     0.30400
H877        H  0.13449852  0.56960347  0.37649632     0.30500
H878        H  0.07208110  0.70318435  0.38731383     0.30800
C879        C  0.23995508  0.68673153  0.69642986     0.86200
C880        C  0.22683397  0.69306293  0.63869780    -0.54000
C881        C  0.20575983  0.66640322  0.61812078     0.09200
C882        C  0.19886986  0.63606183  0.65827110     0.20100
C883        C  0.20560154  0.67926043  0.72898198    -0.54700
C884        C  0.18304797  0.65365429  0.70893500     0.09300
C885        C  0.25877862  0.65103577  0.69327017    -0.54300
C886        C  0.23750439  0.62470601  0.67372995     0.09800
H887        H  0.23543124  0.71569428  0.61516120     0.14400
H888        H  0.18169719  0.61442513  0.64236381     0.00100
H889        H  0.20081261  0.69272095  0.76636358     0.14700
H890        H  0.28677710  0.64602158  0.70378743     0.14400
Zr891      Zr  0.40602491  0.85412107  0.79832531     2.17500
O892        O  0.43349201  0.82165191  0.87169323    -0.51600
O893        O  0.35700403  0.80995816  0.78372330    -0.74800
O894        O  0.37421048  0.86428361  0.88352197    -0.81600
O895        O  0.48219348  0.82213550  0.71085128    -0.83300
O896        O  0.34103496  0.91391515  0.87371693    -0.78900
O897        O  0.44722363  0.80468688  0.78095264    -0.90600
O898        O  0.32728984  0.82473173  0.70777301    -0.76500
O899        O  0.35247865  0.87894001  0.76117651    -0.86000
O900        O  0.41172324  0.84776416  0.70387846    -0.85700
O901        O  0.40860061  0.91583703  0.82281526    -0.72500
O902        O  0.46090677  0.88686318  0.77392288    -0.84600
Zr903      Zr  0.40927000  0.96540995  0.66325641     2.26400
Zr904      Zr  0.35372058  0.93944304  0.78666710     2.06300
Zr905      Zr  0.46545921  0.88053472  0.67974837     2.10000
Zr906      Zr  0.35841954  0.87293242  0.66695759     1.78800
O907        O  0.52770654  0.89838835  0.69950166    -0.93400
O908        O  0.29357139  0.88199203  0.65250662    -0.41200
O909        O  0.41152266  0.90424560  0.64132980    -0.77900
O910        O  0.35569713  0.93305870  0.69149819    -0.96500
O911        O  0.40559908  0.97306752  0.75746747    -0.89800
O912        O  0.46479213  0.94241168  0.69839379    -0.92700
C913        C  0.33169083  0.80535392  0.74873039     1.01100
C914        C  0.47269670  0.79948275  0.74646539     1.14000
C915        C  0.35234397  0.88786374  0.90159886     1.04800
O916        O  0.28847998  0.92835999  0.79391905    -0.94800
O917        O  0.32239068  0.98744422  0.74400120    -0.90600
O918        O  0.35428169  0.50180654  0.66761604    -0.83700
C919        C  0.32810445  0.50654110  0.70107878     1.11400
O920        O  0.49059022  0.93327622  0.87497665    -0.96800
Zr921      Zr  0.46034480  0.94940340  0.79226312     1.88900
O922        O  0.44863283  0.51657830  0.67654660    -0.73500
O923        O  0.35330737  0.98768603  0.85042713    -0.52700
O924        O  0.44742742  0.98891858  0.86620482    -0.97400
O925        O  0.52646019  0.95042471  0.78226092    -0.54600
O926        O  0.47571289  0.00851311  0.76018840    -0.74000
C927        C  0.46978502  0.52638688  0.71454715     0.98400
O928        O  0.40233154  0.00775685  0.59064205    -0.62800
O929        O  0.49683670  0.84635988  0.61152695    -0.57600
O930        O  0.42930989  0.94267753  0.57585542    -0.94300
O931        O  0.46931463  0.89799850  0.58743616    -0.92700
O932        O  0.37314112  0.82521388  0.60595766    -0.93100
O933        O  0.34210330  0.88910864  0.57614138    -0.91900
C934        C  0.45188665  0.91962362  0.55808375     1.17200
H935        H  0.41309303  0.82337472  0.69344739     0.33100
H936        H  0.33350919  0.94054091  0.67467052     0.44000
H937        H  0.48565871  0.95437608  0.68300112     0.37500
H938        H  0.40908388  0.91852224  0.86097664     0.34000
H939        H  0.28444757  0.85950607  0.63754513     0.25800
H940        H  0.32932510  0.98589123  0.86843027     0.31700
H941        H  0.43553693  0.00954231  0.84975891     0.37600
H942        H  0.35638607  0.80568597  0.61577403     0.32100
H943        H  0.52011035  0.83897705  0.62771727     0.31000
H944        H  0.53557973  0.88182575  0.72765804     0.32700
H945        H  0.53512591  0.96741084  0.80936381     0.31600
H946        H  0.34610567  0.91489983  0.57446006     0.35600
H947        H  0.42693643  0.01092578  0.57494264     0.28400
H948        H  0.41338234  0.80788410  0.88823765     0.32600
H949        H  0.47345260  0.91688725  0.89310966     0.35400
H950        H  0.48243857  0.82437506  0.60750300     0.28100
H951        H  0.38795953  0.99555921  0.56281623     0.40900
H952        H  0.28008288  0.94444081  0.82236367     0.31000
H953        H  0.28285330  0.88301838  0.68877074     0.38600
H954        H  0.53132833  0.96251399  0.74791113     0.30400
H955        H  0.37105872  0.98079777  0.87808555     0.30500
H956        H  0.44018087  0.83962823  0.89851979     0.30800
C957        C  0.28060566  0.86268747  0.20724324     0.86200
C958        C  0.29193515  0.85672461  0.14850446    -0.54000
C959        C  0.31127280  0.88398668  0.12618185     0.09200
C960        C  0.31703968  0.91531870  0.16420893     0.20100
C961        C  0.31618777  0.87180929  0.23597963    -0.54700
C962        C  0.33521619  0.89920750  0.21362984     0.09300
C963        C  0.25955197  0.89741168  0.20487584    -0.54300
C964        C  0.27841871  0.92467295  0.18250486     0.09800
H965        H  0.28415994  0.83355485  0.12587849     0.14400
H966        H  0.33247504  0.93766746  0.14619264     0.00100
H967        H  0.32613914  0.85709703  0.27007098     0.14700
H968        H  0.23145137  0.90067417  0.21690456     0.14400
C969        C  0.34085619  0.88632900  0.95898034    -0.05700
C970        C  0.35082459  0.85762823  0.99131844    -0.33100
C971        C  0.34177688  0.85661339  0.04587720     0.36100
C972        C  0.32248816  0.88455466  0.06919972    -0.06100
C973        C  0.31298968  0.91336995  0.03754733    -0.33000
C974        C  0.32162854  0.91440211  0.98313790     0.36000
H975        H  0.36596337  0.83594463  0.97452046     0.16400
O976        O  0.35226300  0.82840846  0.07625759    -0.60500
H977        H  0.29813884  0.93507278  0.05492573     0.16400
O978        O  0.31176490  0.94358420  0.95453156    -0.60600
H979        H  0.28664598  0.93857641  0.94214810     0.43400
H980        H  0.37886259  0.83146929  0.08134710     0.43300
C981        C  0.26225819  0.71723656  0.72004186    -0.05700
C982        C  0.29661137  0.71227044  0.74407825    -0.33100
C983        C  0.31847321  0.74092706  0.75929990     0.36100
C984        C  0.30596421  0.77529958  0.75211636    -0.06100
C985        C  0.26997668  0.78024536  0.73486680    -0.33000
C986        C  0.24817324  0.75169821  0.71925019     0.36000
H987        H  0.30773509  0.68652603  0.75061147     0.16400
O988        O  0.35302153  0.73508395  0.77751901    -0.60500
H989        H  0.25947096  0.80664554  0.73021371     0.16400
O990        O  0.21330735  0.75779565  0.70220707    -0.60600
H991        H  0.21588371  0.76893297  0.66655252     0.43400
H992        H  0.36583280  0.72361162  0.74743821     0.43300
C993        C  0.25274520  0.58934723  0.66853000    -0.05700
C994        C  0.24408251  0.56436837  0.70761486    -0.33100
C995        C  0.26759523  0.53637264  0.71765448     0.36100
C996        C  0.30013832  0.53299913  0.68760510    -0.06100
C997        C  0.30653167  0.55623263  0.64480760    -0.33000
C998        C  0.28335859  0.58446675  0.63561723     0.36000
H999        H  0.22076957  0.56828101  0.73352181     0.16400
O1000       O  0.25894101  0.51322150  0.75792945    -0.60500
H1001       H  0.33072430  0.55393156  0.62024818     0.16400
O1002       O  0.29209977  0.60861376  0.59669002    -0.60600
H1003       H  0.31150527  0.62368369  0.61219770     0.43400
H1004       H  0.26703179  0.52492841  0.79121285     0.43300
C1005       C  0.17431916  0.66396050  0.45109348    -0.05700
C1006       C  0.18682039  0.63348616  0.47702041    -0.33100
C1007       C  0.19710779  0.63393014  0.53077929     0.36100
C1008       C  0.19471411  0.66524038  0.56067361    -0.06100
C1009       C  0.18296409  0.69597695  0.53467165    -0.33000
C1010       C  0.17292881  0.69558197  0.48056970     0.36000
H1011       H  0.18846896  0.60876617  0.45574347     0.16400
O1012       O  0.20976990  0.60351101  0.55340718    -0.60500
H1013       H  0.18119923  0.72044696  0.55655880     0.16400
O1014       O  0.16167720  0.72628562  0.45726188    -0.60600
H1015       H  0.18354894  0.73596738  0.43889234     0.43400
H1016       H  0.23338405  0.59884166  0.53558389     0.43300
C1017       C  0.21554117  0.77214574  0.25670419    -0.05700
C1018       C  0.25132274  0.76782127  0.23772429    -0.33100
C1019       C  0.27357921  0.79691078  0.22581755     0.36100
C1020       C  0.26007812  0.83129452  0.23214993    -0.06100
C1021       C  0.22674343  0.83516513  0.25999774    -0.33000
C1022       C  0.20439179  0.80596883  0.27164265     0.36000
H1023       H  0.26129386  0.74175372  0.22856031     0.16400
O1024       O  0.30797387  0.79151502  0.20591031    -0.60500
H1025       H  0.21690663  0.86063301  0.27185323     0.16400
O1026       O  0.17091055  0.81107786  0.29459167    -0.60600
H1027       H  0.15587699  0.82168725  0.26615921     0.43400
H1028       H  0.30457117  0.78040546  0.17049043     0.43300
C1029       C  0.26058900  0.95876844  0.17459086    -0.05700
C1030       C  0.22870364  0.95969260  0.14411257    -0.33100
C1031       C  0.20428801  0.98743766  0.14937229     0.36100
C1032       C  0.21005125  0.51118579  0.18801305    -0.06100
C1033       C  0.24527771  0.01516885  0.21269334    -0.33000
C1034       C  0.26989688  0.98762768  0.20660235     0.36000
H1035       H  0.22151911  0.93756435  0.11895064     0.16400
O1036       O  0.17266284  0.98666180  0.12048010    -0.60500
H1037       H  0.24835876  0.53126708  0.24645769     0.16400
O1038       O  0.30123316  0.98759846  0.23604825    -0.60600
H1039       H  0.32066042  0.99541236  0.21099031     0.43400
H1040       H  0.15537778  0.97217430  0.14187659     0.43300
C1041       C  0.07828435  0.62880141  0.78437919    -0.05700
C1042       C  0.09643233  0.66134312  0.79152360    -0.33100
C1043       C  0.12803991  0.67026052  0.76413546     0.36100
C1044       C  0.14692752  0.64478551  0.73434660    -0.06100
C1045       C  0.13109738  0.61096359  0.73022867    -0.33000
C1046       C  0.09718179  0.60274336  0.75463273     0.36000
H1047       H  0.08397191  0.68178179  0.81526558     0.16400
O1048       O  0.13883252  0.70488751  0.76491230    -0.60500
H1049       H  0.14516517  0.59047168  0.70870817     0.16400
O1050       O  0.08391192  0.56906821  0.75016561    -0.60600
H1051       H  0.10058947  0.55410029  0.77115804     0.43400
H1052       H  0.12795344  0.71553578  0.73258624     0.43300
C1053       C  0.04966279  0.62830293  0.87244321    -0.05700
C1054       C  0.04194091  0.65840059  0.90320681    -0.33100
C1055       C  0.04737037  0.65902420  0.95835647     0.36100
C1056       C  0.06185474  0.62949557  0.98498611    -0.06100
C1057       C  0.07297230  0.60075599  0.95408184    -0.33000
C1058       C  0.06813333  0.60042372  0.89863155     0.36000
H1059       H  0.03212603  0.68225752  0.88503945     0.16400
O1060       O  0.03848414  0.68903199  0.98555106    -0.60500
H1061       H  0.08540392  0.57815547  0.97283401     0.16400
O1062       O  0.07935265  0.57144353  0.87076235    -0.60600
H1063       H  0.10617949  0.57396221  0.86786238     0.43400
H1064       H  0.05947194  0.70527118  0.98015415     0.43300
C1065       C  0.43821886  0.91342153  0.28974861    -0.05700
C1066       C  0.43445004  0.89051321  0.24545497    -0.33100
C1067       C  0.40151232  0.88721153  0.21827050     0.36100
C1068       C  0.37211845  0.90850214  0.23220983    -0.06100
C1069       C  0.37747823  0.93569908  0.26886412    -0.33000
C1070       C  0.41077151  0.93929691  0.29580635     0.36000
H1071       H  0.45634729  0.87363400  0.23274824     0.16400
O1072       O  0.39793617  0.86225729  0.17914978    -0.60500
H1073       H  0.35531078  0.95309043  0.27876848     0.16400
O1074       O  0.41449688  0.96605967  0.33187825    -0.60600
H1075       H  0.41940192  0.98742993  0.31011895     0.43400
H1076       H  0.38956325  0.84060188  0.19784127     0.43300
C1077       C  0.45626877  0.91555707  0.50022961    -0.05700
C1078       C  0.42541596  0.91234768  0.46797961    -0.33100
C1079       C  0.42864760  0.90727760  0.41264736     0.36100
C1080       C  0.46368669  0.90795461  0.38827572    -0.06100
C1081       C  0.49432469  0.90710927  0.42259373    -0.33000
C1082       C  0.49081390  0.91091224  0.47760266     0.36000
H1083       H  0.39857443  0.91260284  0.48609564     0.16400
O1084       O  0.39787994  0.89899889  0.38430054    -0.60500
H1085       H  0.52159902  0.90609306  0.40615252     0.16400
O1086       O  0.52149983  0.91136928  0.50864737    -0.60600
H1087       H  0.52943343  0.93637053  0.50964323     0.43400
H1088       H  0.37976831  0.91745195  0.39262387     0.43300
C1089       C  0.97941046  0.52630458  0.78632877    -0.05700
C1090       C  0.99167831  0.54595064  0.74204571    -0.33100
C1091       C  0.00942303  0.57876672  0.74912436     0.36100
C1092       C  0.01755094  0.59118426  0.80116157    -0.06100
C1093       C  0.00053052  0.57304252  0.84410688    -0.33000
C1094       C  0.98202510  0.54143318  0.83712741     0.36000
H1095       H  0.98805002  0.53568650  0.70213602     0.16400
O1096       O  0.02003895  0.59770116  0.70502798    -0.60500
H1097       H  0.00057642  0.58337129  0.88419540     0.16400
O1098       O  0.97350935  0.02290041  0.88421142    -0.60600
H1099       H  0.94764306  0.02974685  0.88809420     0.43400
H1100       H  0.99831304  0.61140780  0.69470602     0.43300
C1101       C  0.01498416  0.65672853  0.79282344    -0.05700
C1102       C  0.02490444  0.67918783  0.74977833    -0.33100
C1103       C  0.00993152  0.71280277  0.74419502     0.36100
C1104       C  0.98225393  0.72388137  0.77923376    -0.06100
C1105       C  0.96718713  0.69882420  0.81460403    -0.33000
C1106       C  0.98237789  0.66525384  0.82021983     0.36000
H1107       H  0.04612013  0.67196340  0.72195980     0.16400
O1108       O  0.02444137  0.73527395  0.70668843    -0.60500
H1109       H  0.94415346  0.70557766  0.83957305     0.16400
O1110       O  0.96752025  0.64272658  0.85725998    -0.60600
H1111       H  0.94678366  0.63118403  0.83886254     0.43400
H1112       H  0.01218096  0.72897970  0.67282655     0.43300
C1113       C  0.82441749  0.91281514  0.44648703    -0.05700
C1114       C  0.83509306  0.94260227  0.47610627    -0.33100
C1115       C  0.84453382  0.93995439  0.53019722     0.36100
C1116       C  0.84360359  0.90696934  0.55626908    -0.06100
C1117       C  0.83335382  0.87715977  0.52642984    -0.33000
C1118       C  0.82377398  0.87982882  0.47234558     0.36000
H1119       H  0.83617830  0.96825467  0.45719137     0.16400
O1120       O  0.85452262  0.96991522  0.55699410    -0.60500
H1121       H  0.83284868  0.85136669  0.54495268     0.16400
O1122       O  0.81339749  0.85001791  0.44546354    -0.60600
H1123       H  0.79122399  0.84118559  0.46401552     0.43400
H1124       H  0.83205922  0.97790582  0.57521889     0.43300
C1125       C  0.75195004  0.56177285  0.78964083    -0.05700
C1126       C  0.78197245  0.56580970  0.75438288    -0.33100
C1127       C  0.80432295  0.53735467  0.74168754     0.36100
C1128       C  0.79603468  0.50397385  0.76260895    -0.06100
C1129       C  0.76223696  0.49881597  0.78838696    -0.33000
C1130       C  0.74024705  0.52730158  0.80193877     0.36000
H1131       H  0.78923678  0.59118277  0.73775725     0.16400
O1132       O  0.83555031  0.54317043  0.71271358    -0.60500
H1133       H  0.75389364  0.47275020  0.80147958     0.16400
O1134       O  0.70776233  0.52123720  0.82785427    -0.60600
H1135       H  0.71403982  0.50982010  0.86221826     0.43400
H1136       H  0.82866200  0.53861606  0.67513465     0.43300
C1137       C  0.76013109  0.68962605  0.83584337    -0.05700
C1138       C  0.74939200  0.71645337  0.80131565    -0.33100
C1139       C  0.77276391  0.74483119  0.79058990     0.36100
C1140       C  0.80721686  0.74674446  0.81547175    -0.06100
C1141       C  0.81650326  0.72097914  0.85323149    -0.33000
C1142       C  0.79342995  0.69233775  0.86299309     0.36000
H1143       H  0.72385375  0.71425561  0.78001517     0.16400
O1144       O  0.76163934  0.77037380  0.75565865    -0.60500
H1145       H  0.84240044  0.72211768  0.87370704     0.16400
O1146       O  0.80387406  0.66660947  0.89819197    -0.60600
H1147       H  0.82396605  0.65392356  0.88024436     0.43400
H1148       H  0.76716360  0.76099942  0.71965784     0.43300
C1149       C  0.49384793  0.94643643  0.31699158    -0.05700
C1150       C  0.51077744  0.95252435  0.26680480    -0.33100
C1151       C  0.53140018  0.48623272  0.25258980     0.36100
C1152       C  0.52965608  0.51453679  0.28890450    -0.06100
C1153       C  0.50945250  0.50964457  0.33561342    -0.33000
C1154       C  0.49217676  0.47805965  0.34803363     0.36000
H1155       H  0.51031225  0.93198615  0.23694148     0.16400
O1156       O  0.55038699  0.48963053  0.20565006    -0.60500
H1157       H  0.50624064  0.53088469  0.36382868     0.16400
O1158       O  0.46984966  0.47857945  0.39216467    -0.60600
H1159       H  0.48568367  0.48420243  0.42304994     0.43400
H1160       H  0.52473256  0.99581427  0.18062518     0.43300
C1161       C  0.49312670  0.87628659  0.31682042    -0.05700
C1162       C  0.53095128  0.87512619  0.30629055    -0.33100
C1163       C  0.54909207  0.84280227  0.30076145     0.36100
C1164       C  0.52951152  0.81081890  0.30370317    -0.06100
C1165       C  0.49243707  0.81150705  0.31532323    -0.33000
C1166       C  0.47452455  0.84336943  0.32346060     0.36000
H1167       H  0.54712351  0.89897456  0.30473363     0.16400
O1168       O  0.58598182  0.84275021  0.29212916    -0.60500
H1169       H  0.47738831  0.78701490  0.31999233     0.16400
O1170       O  0.43875498  0.84215817  0.33963736    -0.60600
H1171       H  0.42502679  0.83107367  0.31002392     0.43400
H1172       H  0.59696923  0.84349097  0.32819184     0.43300
C1173       C  0.69386690  0.62298256  0.95017004    -0.05700
C1174       C  0.67627338  0.59512675  0.97703008    -0.33100
C1175       C  0.66680471  0.59784153  0.03120536     0.36100
C1176       C  0.67478352  0.62902050  0.05987646    -0.06100
C1177       C  0.69316566  0.65648199  0.03293299    -0.33000
C1178       C  0.70281359  0.65361389  0.97902356     0.36000
H1179       H  0.66940373  0.57122180  0.95571809     0.16400
O1180       O  0.64923375  0.56998336  0.05517277    -0.60500
H1181       H  0.70002394  0.68066415  0.05349930     0.16400
O1182       O  0.72149187  0.68087407  0.95525226    -0.60600
H1183       H  0.74691017  0.67873112  0.96793528     0.43400
H1184       H  0.66889452  0.55481802  0.06908990     0.43300
C1185       C  0.69893316  0.52133912  0.27692568    -0.05700
C1186       C  0.69439461  0.49960832  0.32152130    -0.33100
C1187       C  0.71907157  0.97342761  0.32755798     0.36100
C1188       C  0.75289787  0.97291251  0.30023233    -0.06100
C1189       C  0.75456898  0.49068963  0.25489260    -0.33000
C1190       C  0.72867359  0.51632996  0.24266028     0.36000
H1191       H  0.66709877  0.99775392  0.33556498     0.16400
O1192       O  0.71193657  0.95067636  0.36903353    -0.60500
H1193       H  0.77660119  0.48706841  0.22693256     0.16400
O1194       O  0.73341311  0.53719538  0.19839554    -0.60600
H1195       H  0.74785032  0.55775328  0.21079116     0.43400
H1196       H  0.71370866  0.96513582  0.40182329     0.43300
C1197       C  0.71612876  0.79009986  0.31013259    -0.05700
C1198       C  0.73932725  0.79961129  0.26737008    -0.33100
C1199       C  0.76435136  0.82730404  0.27224403     0.36100
C1200       C  0.76690580  0.84575736  0.32048426    -0.06100
C1201       C  0.74495601  0.83566864  0.36374961    -0.33000
C1202       C  0.72001300  0.80788802  0.35921504     0.36000
H1203       H  0.73707813  0.78661111  0.22910552     0.16400
O1204       O  0.78367741  0.83826657  0.22818916    -0.60500
H1205       H  0.74523842  0.85106634  0.40002207     0.16400
O1206       O  0.69842406  0.79970860  0.40229545    -0.60600
H1207       H  0.71169863  0.78107512  0.42176568     0.43400
H1208       H  0.80887675  0.82999642  0.23407103     0.43300
C1209       C  0.58251355  0.66387996  0.72541105    -0.05700
C1210       C  0.61605413  0.66478253  0.69746107    -0.33100
C1211       C  0.64872442  0.65600615  0.72248011     0.36100
C1212       C  0.64923227  0.64847678  0.77730171    -0.06100
C1213       C  0.61739806  0.65293757  0.80724805    -0.33000
C1214       C  0.58427712  0.66069106  0.78203598     0.36000
H1215       H  0.61755951  0.67149491  0.65568488     0.16400
O1216       O  0.68028189  0.65518857  0.69302037    -0.60500
H1217       H  0.61770182  0.64833850  0.84992524     0.16400
O1218       O  0.55327486  0.66300829  0.81261293    -0.60600
H1219       H  0.54884005  0.63909085  0.82734332     0.43400
H1220       H  0.67848909  0.63354752  0.67111317     0.43300
C1221       C  0.52255947  0.63047368  0.70623421    -0.05700
C1222       C  0.53889988  0.60087044  0.73110563    -0.33100
C1223       C  0.52183947  0.56791128  0.73454452     0.36100
C1224       C  0.48750833  0.56212329  0.71157558    -0.06100
C1225       C  0.47084600  0.59067043  0.68560937    -0.33000
C1226       C  0.48769127  0.62439667  0.68319216     0.36000
H1227       H  0.56639442  0.60161747  0.74577685     0.16400
O1228       O  0.54014698  0.54092450  0.75875105    -0.60500
H1229       H  0.44453804  0.58691232  0.66700841     0.16400
O1230       O  0.47081169  0.65071958  0.65528405    -0.60600
H1231       H  0.44753227  0.65505252  0.67426504     0.43400
H1232       H  0.55420616  0.52952025  0.72979312     0.43300
C1233       C  0.52694596  0.70007734  0.71884571    -0.05700
C1234       C  0.49289616  0.70056836  0.74535642    -0.33100
C1235       C  0.47562752  0.73259534  0.75793801     0.36100
C1236       C  0.49236773  0.76512837  0.74505055    -0.06100
C1237       C  0.52788437  0.76466031  0.72459963    -0.33000
C1238       C  0.54528088  0.73305852  0.71234746     0.36000
H1239       H  0.47892305  0.67630113  0.75537466     0.16400
O1240       O  0.44157298  0.73161230  0.78024264    -0.60500
H1241       H  0.54204168  0.78918853  0.71603980     0.16400
O1242       O  0.57987500  0.73478037  0.69137383    -0.60600
H1243       H  0.57770591  0.74669038  0.65628562     0.43400
H1244       H  0.42506229  0.73730568  0.75039755     0.43300
C1245       C  0.56170127  0.67632619  0.52178316    -0.05700
C1246       C  0.57280094  0.64610743  0.54923596    -0.33100
C1247       C  0.56651817  0.64203349  0.60411160     0.36100
C1248       C  0.54908166  0.66887063  0.63396212    -0.06100
C1249       C  0.53478880  0.69753255  0.60413641    -0.33000
C1250       C  0.54229002  0.70203103  0.54955519     0.36000
H1251       H  0.58679252  0.62541678  0.52790307     0.16400
O1252       O  0.57925735  0.61231334  0.62868676    -0.60500
H1253       H  0.51756369  0.71702496  0.62231429     0.16400
O1254       O  0.52892861  0.73082322  0.52325013    -0.60600
H1255       H  0.54712977  0.74980968  0.52931154     0.43400
H1256       H  0.56234094  0.59313403  0.61800004     0.43300
C1257       C  0.94009969  0.89381250  0.21426064    -0.05700
C1258       C  0.93457159  0.88187094  0.26727948    -0.33100
C1259       C  0.90230852  0.88859808  0.29561621     0.36100
C1260       C  0.87403036  0.90779077  0.27156318    -0.06100
C1261       C  0.88032808  0.92140146  0.21997023    -0.33000
C1262       C  0.91335468  0.91650933  0.19316766     0.36000
H1263       H  0.95565416  0.86768622  0.28801944     0.16400
O1264       O  0.89998999  0.87812290  0.34790812    -0.60500
H1265       H  0.85969010  0.93621432  0.19936644     0.16400
O1266       O  0.91842800  0.93308356  0.14503008    -0.60600
H1267       H  0.92275674  0.95821125  0.15377517     0.43400
H1268       H  0.89961142  0.85201068  0.34711039     0.43300
C1269       C  0.99508024  0.85289247  0.20779790    -0.05700
C1270       C  0.03200183  0.85231810  0.22362466    -0.33100
C1271       C  0.04947229  0.82043782  0.23634562     0.36100
C1272       C  0.03052571  0.78812642  0.23279100    -0.06100
C1273       C  0.99349416  0.78868008  0.22032839    -0.33000
C1274       C  0.97575261  0.82015910  0.20872588     0.36000
H1275       H  0.04839601  0.87604113  0.22285015     0.16400
O1276       O  0.08579251  0.82100643  0.24841573    -0.60500
H1277       H  0.97825334  0.76419257  0.21763499     0.16400
O1278       O  0.93969135  0.81826276  0.19482471    -0.60600
H1279       H  0.92634557  0.81210327  0.22808791     0.43400
H1280       H  0.09850749  0.81918432  0.21356627     0.43300
C1281       C  0.99827275  0.92191805  0.18843956    -0.05700
C1282       C  0.00988512  0.93324512  0.23960583    -0.33100
C1283       C  0.02503443  0.96703894  0.24846087     0.36100
C1284       C  0.02920123  0.99108789  0.20592102    -0.06100
C1285       C  0.01773726  0.98041988  0.15529153    -0.33000
C1286       C  0.00186626  0.94719345  0.14620418     0.36000
H1287       H  0.00647631  0.91585874  0.27357815     0.16400
O1288       O  0.03653608  0.97582729  0.29869506    -0.60500
H1289       H  0.02041807  0.49620725  0.11614317     0.16400
O1290       O  0.98661582  0.94179476  0.09698758    -0.60600
H1291       H  0.00673213  0.94416878  0.07063828     0.43400
H1292       H  0.01464670  0.98501370  0.31708104     0.43300
C1293       C  0.97062957  0.87475963  0.12407507    -0.05700
C1294       C  0.93606396  0.86553784  0.10317185    -0.33100
C1295       C  0.93128487  0.85748868  0.04910107     0.36100
C1296       C  0.96118810  0.85814588  0.01394665    -0.06100
C1297       C  0.99607784  0.86349188  0.03494546    -0.33000
C1298       C  0.00111155  0.87045467  0.08949656     0.36000
H1299       H  0.91215263  0.86444734  0.12831500     0.16400
O1300       O  0.89676321  0.85138131  0.03043302    -0.60500
H1301       H  0.01958702  0.86294453  0.00871652     0.16400
O1302       O  0.03594188  0.87422074  0.10852517    -0.60600
H1303       H  0.04662831  0.89493232  0.08988584     0.43400
H1304       H  0.89205109  0.82599826  0.03701493     0.43300
loop_ 
_geom_bond_atom_site_label_1 
_geom_bond_atom_site_label_2 
_geom_bond_distance 
_geom_bond_site_symmetry_2 
_ccdc_geom_bond_type 
C1          C605   1.561       .  S
C1          C617   1.569       .  S
C1          C629   1.579       .  S
C1          C641   1.567       .  S
C2          C557   1.567       .  S
C2          C569   1.586       .  S
C2          C581   1.569       .  S
C2          C596   1.573       .  S
Zr3           O4   2.439       .  S
Zr3           O5   2.456       .  S
Zr3           O6   2.445       .  S
Zr3           O9   2.448       .  S
Zr3          O11   2.383       .  S
Zr3          O12   2.389       .  S
Zr3          O13   2.419       .  S
Zr3          O14   2.427       .  S
O4           H60   0.990       .  S
O4           H68   0.990       .  S
O5           C25   1.287       .  A
O6           C27   1.286       .  A
O7          Zr17   2.433       .  S
O7           C26   1.285       .  A
O8          Zr16   2.444       .  S
O8           C27   1.287       .  A
O9           C26   1.284       .  A
O10         Zr18   2.367       .  S
O10          C25   1.272       .  A
O11         Zr16   2.386       .  S
O11         Zr18   2.384       .  S
O12         Zr17   2.390       .  S
O12         Zr18   2.370       .  S
O12          H47   0.965       .  S
O13         Zr16   2.394       .  S
O13         Zr33   2.400       .  S
O13          H50   0.964       .  S
O14         Zr17   2.378       .  S
O14         Zr33   2.421       .  S
Zr15         O40   2.441       .  S
Zr15         O34   2.437       .  S
Zr15         O42   2.482       .  S
Zr15         O30   2.450       .  S
Zr15         O21   2.391       .  S
Zr15         O22   2.411       .  S
Zr15         O23   2.388       .  S
Zr15         O24   2.393       .  S
Zr16         O35   2.440       .  S
Zr16         O28   2.435       .  S
Zr16         O29   2.417       .  S
Zr16         O22   2.405       .  S
Zr16         O23   2.399       .  S
Zr17         O19   2.435       .  S
Zr17         O41   2.442       .  S
Zr17         O43   2.406       .  S
Zr17         O21   2.394       .  S
Zr17         O24   2.396       .  S
Zr18         O44   2.435       .  S
Zr18         O45   2.436       .  S
Zr18         O20   2.437       .  S
Zr18         O21   2.366       .  S
Zr18         O22   2.364       .  S
O19          H56   0.990       .  S
O20          H51   0.990       .  S
O20          H65   0.990       .  S
O22          H48   0.964       .  S
O23         Zr33   2.373       .  S
O24         Zr33   2.379       .  S
O24          H49   0.968       .  S
C25         C533   1.456       .  S
C26         C500   1.499       .  S
C27         C524   1.497       .  S
O28          H64   0.990       .  S
O29          C31   1.283       .  A
O30          C31   1.288       .  A
C31         C545   1.487       .  S
O32         Zr33   2.436       .  S
O32          H61   0.990       .  S
Zr33         O36   2.436       .  S
Zr33         O37   2.441       .  S
Zr33         O38   2.446       .  S
O34          C39   1.282       .  A
O35          H52   0.990       .  S
O35          H67   0.990       .  S
O36          H53   0.990       .  S
O37          H57   0.990       .  S
O37          H66   0.990       .  S
O38          C39   1.285       .  A
C39         C512   1.482       .  S
O40          H59   0.990       .  S
O40          H63   0.990       .  S
O41          H55   0.990       .  S
O41          H62   0.991       .  S
O42          C46   1.292       .  A
O43          C46   1.279       .  A
O44          H54   0.990       .  S
O45          H58   0.990       .  S
C46         C593   1.475       .  S
C69         C473   1.534       .  S
C69          C70   1.551       .  S
C69          C75   1.532       .  S
C69          C73   1.533       .  S
C70          H77   1.084       .  S
C70          C71   1.374       .  D
C71          C72   1.542       .  S
C71         C521   1.495       .  S
C72          C76   1.528       .  S
C72          C74   1.536       .  S
C72          H78   1.110       .  S
C73          H79   1.086       .  S
C73          C74   1.368       .  D
C74         C560   1.481       .  S
C75          H80   1.084       .  S
C75          C76   1.354       .  D
C76         C485   1.456       .  S
Zr81         O82   2.440       .  S
Zr81         O83   2.466       .  S
Zr81         O84   2.454       .  S
Zr81         O87   2.441       .  S
Zr81         O89   2.379       .  S
Zr81         O90   2.394       .  S
Zr81         O91   2.417       .  S
Zr81         O92   2.424       .  S
O82         H138   0.991       .  S
O82         H146   0.990       .  S
O83         C103   1.289       .  A
O84         C105   1.288       .  A
O85         Zr95   2.428       .  S
O85         C104   1.285       .  A
O86         Zr94   2.429       .  S
O86         C105   1.284       .  A
O87         C104   1.284       .  A
O88         Zr96   2.375       .  S
O88         C103   1.274       .  A
O89         Zr94   2.387       .  S
O89         Zr96   2.385       .  S
O90         Zr95   2.402       .  S
O90         Zr96   2.374       .  S
O90         H125   0.966       .  S
O91         Zr94   2.399       .  S
O91        Zr111   2.394       .  S
O91         H128   0.964       .  S
O92         Zr95   2.389       .  S
O92        Zr111   2.411       .  S
Zr93        O118   2.442       .  S
Zr93        O112   2.425       .  S
Zr93        O120   2.454       .  S
Zr93        O108   2.421       .  S
Zr93         O99   2.387       .  S
Zr93        O100   2.410       .  S
Zr93        O101   2.385       .  S
Zr93        O102   2.387       .  S
Zr94        O113   2.437       .  S
Zr94        O106   2.435       .  S
Zr94        O107   2.420       .  S
Zr94        O100   2.406       .  S
Zr94        O101   2.393       .  S
Zr95         O97   2.434   1_655  S
Zr95        O119   2.439       .  S
Zr95        O121   2.427       .  S
Zr95         O99   2.387       .  S
Zr95        O102   2.396       .  S
Zr96        O122   2.437       .  S
Zr96        O123   2.436       .  S
Zr96         O98   2.439       .  S
Zr96         O99   2.373       .  S
Zr96        O100   2.361       .  S
O97         H134   0.990       .  S
O98         H129   0.990       .  S
O98         H143   0.990       .  S
O100        H126   0.965       .  S
O101       Zr111   2.373       .  S
O102       Zr111   2.380       .  S
O102        H127   0.966       .  S
C103       C1128   1.480       .  S
C104       C1089   1.483       .  S
C105        C464   1.493       .  S
O106        H142   0.990       .  S
O107        C109   1.283       .  A
O108        C109   1.283       .  A
C109        C488   1.471       .  S
O110       Zr111   2.435       .  S
O110        H139   0.990       .  S
Zr111       O114   2.435       .  S
Zr111       O115   2.440   1_655  S
Zr111       O116   2.441       .  S
O112        C117   1.281       .  A
O113        H130   0.990       .  S
O113        H145   0.990       .  S
O114        H131   0.990       .  S
O115        H135   0.990       .  S
O115        H144   0.989       .  S
O116        C117   1.285       .  A
C117        C452   1.497       .  S
O118        H137   0.991       .  S
O118        H141   0.990       .  S
O119        H133   0.990       .  S
O119        H140   0.990       .  S
O120        C124   1.287       .  A
O121        C124   1.283       .  A
O122        H132   0.990       .  S
O123        H136   0.990       .  S
C124        C644   1.479   1_556  S
C147        C536   1.523       .  S
C147        C148   1.539       .  S
C147        C153   1.522       .  S
C147        C151   1.535       .  S
C148        H155   1.085       .  S
C148        C149   1.367       .  D
C149        C150   1.545       .  S
C149        C461   1.490       .  S
C150        C154   1.535       .  S
C150        C152   1.554       .  S
C150        H156   1.106       .  S
C151        H157   1.080       .  S
C151        C152   1.374       .  D
C152        C608   1.499       .  S
C153        H158   1.088       .  S
C153        C154   1.353       .  D
C154        C548   1.468       .  S
C159        C413   1.566       .  S
C159        C428   1.555       .  S
C159        C497   1.576       .  S
C159        C509   1.573       .  S
C160        C389   1.566       .  S
C160        C401   1.569       .  S
C160        C440   1.567       .  S
C160        C449   1.572       .  S
Zr161       O162   2.439       .  S
Zr161       O163   2.458       .  S
Zr161       O164   2.461       .  S
Zr161       O167   2.465       .  S
Zr161       O169   2.383       .  S
Zr161       O170   2.383       .  S
Zr161       O171   2.418       .  S
Zr161       O172   2.421       .  S
O162        H218   0.990       .  S
O162        H226   0.990       .  S
O163        C183   1.288       .  A
O164        C185   1.290       .  A
O165       Zr175   2.432       .  S
O165        C184   1.285       .  A
O166       Zr174   2.427       .  S
O166        C185   1.285       .  A
O167        C184   1.290       .  A
O168       Zr176   2.379       .  S
O168        C183   1.274       .  A
O169       Zr174   2.388       .  S
O169       Zr176   2.380       .  S
O170       Zr175   2.390       .  S
O170       Zr176   2.373       .  S
O170        H205   0.965       .  S
O171       Zr174   2.395       .  S
O171       Zr191   2.402       .  S
O171        H208   0.965       .  S
O172       Zr175   2.389       .  S
O172       Zr191   2.419       .  S
Zr173       O198   2.442       .  S
Zr173       O192   2.441       .  S
Zr173       O200   2.456       .  S
Zr173       O188   2.441       .  S
Zr173       O179   2.394       .  S
Zr173       O180   2.405       .  S
Zr173       O181   2.384       .  S
Zr173       O182   2.389       .  S
Zr174       O193   2.436       .  S
Zr174       O186   2.435       .  S
Zr174       O187   2.421       .  S
Zr174       O180   2.397       .  S
Zr174       O181   2.394       .  S
Zr175       O177   2.435   1_455  S
Zr175       O199   2.439       .  S
Zr175       O201   2.417       .  S
Zr175       O179   2.389       .  S
Zr175       O182   2.404       .  S
Zr176       O202   2.436       .  S
Zr176       O203   2.435       .  S
Zr176       O178   2.440       .  S
Zr176       O179   2.377       .  S
Zr176       O180   2.364       .  S
O177        H214   0.990       .  S
O178        H209   0.990       .  S
O178        H223   0.990       .  S
O180        H206   0.964       .  S
O181       Zr191   2.377       .  S
O182       Zr191   2.381       .  S
O182        H207   0.965       .  S
C183        C365   1.476       .  S
C184        C620   1.493       .  S
C185        C353   1.495       .  S
O186        H222   0.990       .  S
O187        C189   1.284       .  A
O188        C189   1.286       .  A
C189        C380   1.478       .  S
O190       Zr191   2.437       .  S
O190        H219   0.990       .  S
Zr191       O194   2.438       .  S
Zr191       O195   2.438   1_455  S
Zr191       O196   2.461       .  S
O192        C197   1.285       .  A
O193        H210   0.990       .  S
O193        H225   0.990       .  S
O194        H211   0.990       .  S
O195        H215   0.990       .  S
O195        H224   0.990       .  S
O196        C197   1.287       .  A
C197       C1284   1.501   1_545  S
O198        H217   0.990       .  S
O198        H221   0.991       .  S
O199        H213   0.990       .  S
O199        H220   0.990       .  S
O200        C204   1.288       .  A
O201        C204   1.282       .  A
O202        H212   0.990       .  S
O203        H216   0.990       .  S
C204        C404   1.490   1_554  S
C227        C329   1.537       .  S
C227        C228   1.546       .  S
C227        C233   1.530       .  S
C227        C231   1.528       .  S
C228        H235   1.086       .  S
C228        C229   1.372       .  D
C229        C230   1.544       .  S
C229        C356   1.498       .  S
C230        C234   1.536       .  S
C230        C232   1.549       .  S
C230        H236   1.108       .  S
C231        H237   1.084       .  S
C231        C232   1.370       .  D
C232        C392   1.500       .  S
C233        H238   1.080       .  S
C233        C234   1.359       .  D
C234        C341   1.467       .  S
Zr239       O240   2.439       .  S
Zr239       O241   2.470       .  S
Zr239       O242   2.470       .  S
Zr239       O245   2.465       .  S
Zr239       O247   2.385       .  S
Zr239       O248   2.385       .  S
Zr239       O249   2.422       .  S
Zr239       O250   2.425       .  S
O240        H296   0.990       .  S
O240        H304   0.990       .  S
O241        C261   1.291       .  A
O242        C263   1.292       .  A
O243       Zr253   2.437       .  S
O243        C262   1.286       .  A
O244       Zr252   2.424       .  S
O244        C263   1.283       .  A
O245        C262   1.290       .  A
O246       Zr254   2.384       .  S
O246        C261   1.275       .  A
O247       Zr252   2.387       .  S
O247       Zr254   2.382       .  S
O248       Zr253   2.391       .  S
O248       Zr254   2.374       .  S
O248        H283   0.966       .  S
O249       Zr252   2.399       .  S
O249       Zr269   2.397       .  S
O249        H286   0.965       .  S
O250       Zr253   2.384       .  S
O250       Zr269   2.413       .  S
Zr251       O276   2.442       .  S
Zr251       O278   2.459       .  S
Zr251       O922   2.455       .  S
Zr251       O918   2.445       .  S
Zr251       O257   2.393       .  S
Zr251       O258   2.408       .  S
Zr251       O259   2.382       .  S
Zr251       O260   2.396       .  S
Zr252       O271   2.436       .  S
Zr252       O264   2.434       .  S
Zr252       O265   2.416       .  S
Zr252       O258   2.394       .  S
Zr252       O259   2.395       .  S
Zr253       O255   2.434       .  S
Zr253       O277   2.441       .  S
Zr253       O279   2.403       .  S
Zr253       O257   2.390       .  S
Zr253       O260   2.404       .  S
Zr254       O280   2.435       .  S
Zr254       O281   2.436       .  S
Zr254       O256   2.438       .  S
Zr254       O257   2.367       .  S
Zr254       O258   2.370       .  S
O255        H292   0.990       .  S
O256        H287   0.990       .  S
O256        H301   0.990       .  S
O258        H284   0.964       .  S
O259       Zr269   2.377       .  S
O260       Zr269   2.372       .  S
O260        H285   0.967       .  S
C261        C332   1.475       .  S
C262        C584   1.500       .  S
C263        C317   1.500       .  S
O264        H300   0.990       .  S
O265        C919   1.282       .  A
O266       Zr903   2.453       .  S
O266        C267   1.290   1_565  A
C267        O917   1.282   1_545  A
C267        C344   1.482       .  S
O268       Zr269   2.436       .  S
O268        H297   0.990       .  S
Zr269       O272   2.434       .  S
Zr269       O273   2.438       .  S
Zr269       O274   2.441       .  S
O270       Zr903   2.461   1_545  S
O270        C275   1.287       .  A
O271        H288   0.990       .  S
O271        H303   0.990       .  S
O272        H289   0.990       .  S
O273        H293   0.990       .  S
O273        H302   0.990       .  S
O274        C927   1.286       .  A
C275        O926   1.286       .  A
C275        C572   1.506       .  S
O276        H295   0.990       .  S
O276        H299   0.991       .  S
O277        H291   0.990       .  S
O277        H298   0.990       .  S
O278        C282   1.288       .  A
O279        C282   1.279       .  A
O280        H290   0.991       .  S
O281        H294   0.990       .  S
C282        C425   1.464       .  S
C305        C368   1.529       .  S
C305        C306   1.546       .  S
C305        C311   1.535       .  S
C305        C309   1.530       .  S
C306        H313   1.085       .  S
C306        C307   1.369       .  D
C307        C308   1.546       .  S
C307        C320   1.490       .  S
C308        C312   1.537       .  S
C308        C310   1.540       .  S
C308        H314   1.111       .  S
C309        H315   1.087       .  S
C309        C310   1.365       .  D
C310        C416   1.475       .  S
C311        H316   1.082       .  S
C311        C312   1.356       .  D
C312        C377   1.473       .  S
C317        C318   1.409       .  A
C317        C322   1.420       .  A
C318        C319   1.408   1_556  A
C318        H323   1.083       .  S
C319        C320   1.411       .  A
C319        O324   1.372       .  S
C320        C321   1.398       .  A
C321        C322   1.400   1_554  A
C321        H325   1.084       .  S
C322        O326   1.371       .  S
O324        H328   0.991       .  S
O326        H327   0.992       .  S
C329        C330   1.417       .  A
C329        C334   1.414       .  A
C330        C331   1.401       .  A
C330        H335   1.075       .  S
C331        C332   1.400       .  A
C331        O336   1.370       .  S
C332        C333   1.404       .  A
C333        C334   1.399       .  A
C333        H337   1.084       .  S
C334        O338   1.373       .  S
O336        H340   0.992       .  S
O338        H339   0.992       .  S
C341        C342   1.396       .  A
C341        C346   1.406       .  A
C342        C343   1.400       .  A
C342        H347   1.084       .  S
C343        C344   1.418       .  A
C343        O348   1.372       .  S
C344        C345   1.404       .  A
C345        C346   1.394       .  A
C345        H349   1.083       .  S
C346        O350   1.373       .  S
O348        H352   0.992       .  S
O350        H351   0.992       .  S
C353        C354   1.408       .  A
C353        C358   1.412       .  A
C354        C355   1.401       .  A
C354        H359   1.084       .  S
C355        C356   1.412       .  A
C355        O360   1.372       .  S
C356        C357   1.408       .  A
C357        C358   1.407       .  A
C357        H361   1.083       .  S
C358        O362   1.371       .  S
O360        H364   0.992       .  S
O362        H363   0.992       .  S
C365        C366   1.408       .  A
C365        C370   1.401       .  A
C366        C367   1.398       .  A
C366        H371   1.084       .  S
C367        C368   1.409       .  A
C367        O372   1.374       .  S
C368        C369   1.415       .  A
C369        C370   1.398       .  A
C369        H373   1.077       .  S
C370        O374   1.371       .  S
O372        H376   0.992       .  S
O374        H375   0.991       .  S
C377        C378   1.403       .  A
C377        C382   1.401       .  A
C378        C379   1.400       .  A
C378        H383   1.084       .  S
C379       C1032   1.412       .  A
C379        O384   1.371       .  S
C380       C1031   1.410   1_545  A
C380       C1033   1.409       .  A
C381        C382   1.398       .  A
C381       C1032   1.410       .  A
C381       H1037   1.083       .  S
C382        O386   1.369       .  S
O384        H388   0.992       .  S
H385       C1033   1.084       .  S
O386        H387   0.992       .  S
C389        C390   1.413       .  A
C389        C394   1.424       .  A
C390        C391   1.387       .  A
C390        H395   1.083       .  S
C391        C392   1.408       .  A
C391        O396   1.372       .  S
C392        C393   1.408       .  A
C393        C394   1.415       .  A
C393        H397   1.082       .  S
C394        O398   1.371       .  S
O396        H400   0.992       .  S
O398        H399   0.992       .  S
C401        C402   1.413       .  A
C401        C406   1.423       .  A
C402        C403   1.398       .  A
C402        H407   1.080       .  S
C403        C404   1.412       .  A
C403        O408   1.371       .  S
C404        C405   1.402       .  A
C405        C406   1.401       .  A
C405        H409   1.083       .  S
C406        O410   1.370       .  S
O408        H412   0.992       .  S
O410        H411   0.992       .  S
C413        C414   1.418       .  A
C413        C418   1.423       .  A
C414        C415   1.396       .  A
C414        H419   1.080       .  S
C415        C416   1.399       .  A
C415        O420   1.372       .  S
C416        C417   1.396       .  A
C417        C418   1.403       .  A
C417        H421   1.080       .  S
C418        O422   1.368       .  S
O420        H424   0.992       .  S
O422        H423   0.992       .  S
C425        C426   1.401       .  A
C425        C430   1.399       .  A
C426        C427   1.406       .  A
C426        H431   1.084       .  S
C427        C428   1.423       .  A
C427        O432   1.373       .  S
C428        C429   1.418       .  A
C429        C430   1.391       .  A
C429        H433   1.083       .  S
C430        O434   1.372       .  S
O432        H436   0.993       .  S
O434        H435   0.992       .  S
C437        C756   1.490   1_545  S
C437        C438   1.406       .  A
C437        C442   1.405       .  A
C438        C439   1.415   1_655  A
C438        H443   1.083       .  S
C439        C440   1.421       .  A
C439        O444   1.371       .  S
C440        C441   1.416       .  A
C441        C442   1.392   1_455  A
C441        H445   1.079       .  S
C442       O1098   1.372       .  S
O444        H448   0.992   1_455  S
O446       C1094   1.372       .  S
O446        H447   0.992       .  S
C449        C450   1.417       .  A
C449        C454   1.418   1_455  A
C450        C451   1.401       .  A
C450        H455   1.081       .  S
C451        C452   1.410   1_455  A
C451        O456   1.371       .  S
C452        C453   1.410       .  A
C453        C454   1.405       .  A
C453        H457   1.083       .  S
C454        O458   1.371       .  S
O456        H460   0.992       .  S
O458        H459   0.992       .  S
C461        C462   1.406       .  A
C461        C466   1.407       .  A
C462        C463   1.402       .  A
C462        H467   1.083       .  S
C463        C464   1.412       .  A
C463        O468   1.371       .  S
C464        C465   1.410       .  A
C465        C466   1.403       .  A
C465        H469   1.083       .  S
C466        O470   1.371       .  S
O468        H472   0.992       .  S
O470        H471   0.992       .  S
C473        C474   1.419       .  A
C473        C478   1.408       .  A
C474        C475   1.401       .  A
C474        H479   1.080       .  S
C475        C476   1.402       .  A
C475        O480   1.371       .  S
C476        C755   1.483   1_545  S
C476        C477   1.411   1_545  A
C477        C478   1.400   1_565  A
C477        H481   1.084       .  S
C478        O482   1.374       .  S
O480        H484   0.992       .  S
O482        H483   0.992       .  S
C485        C486   1.396       .  A
C485        C490   1.402       .  A
C486        C487   1.396       .  A
C486        H491   1.084       .  S
C487        C488   1.413       .  A
C487        O492   1.372       .  S
C488        C489   1.405       .  A
C489        C490   1.390       .  A
C489        H493   1.083       .  S
C490        O494   1.373       .  S
O492        H496   0.992       .  S
O494        H495   0.992       .  S
C497        C498   1.418       .  A
C497       C1154   1.435       .  A
C498       C1151   1.417       .  A
C498        H503   1.083       .  S
C499        C500   1.412   1_565  A
C499       C1150   1.416       .  A
C499        O504   1.371       .  S
C500        C501   1.397       .  A
C501        C502   1.388   1_545  A
C501        H505   1.082       .  S
C502       C1149   1.433       .  A
C502        O506   1.374       .  S
O504       H1160   0.992       .  S
O506        H507   0.993       .  S
H508       O1156   0.992       .  S
C509        C510   1.416       .  A
C509        C514   1.430       .  A
C510        C511   1.413       .  A
C510        H515   1.079       .  S
C511        C512   1.409       .  A
C511        O516   1.371       .  S
C512        C513   1.392       .  A
C513        C514   1.398       .  A
C513        H517   1.084       .  S
C514        O518   1.374       .  S
O516        H520   0.992       .  S
O518        H519   0.992       .  S
C521        C522   1.405       .  A
C521        C526   1.411       .  A
C522        C523   1.405   1_556  A
C522        H527   1.083       .  S
C523        C524   1.415       .  A
C523        O528   1.371       .  S
C524        C525   1.408       .  A
C525        C526   1.402   1_554  A
C525        H529   1.083       .  S
C526        O530   1.372       .  S
O528        H532   0.992       .  S
O530        H531   0.992       .  S
C533        C534   1.396   1_545  A
C533        C538   1.403       .  A
C534       C1187   1.391       .  A
C534       H1191   1.085       .  S
C535        C536   1.415       .  A
C535       C1186   1.391       .  A
C535        O540   1.374       .  S
C536       C1189   1.414       .  A
C537        C538   1.403   1_565  A
C537       C1188   1.413       .  A
C537        H541   1.077       .  S
C538        O542   1.372       .  S
H539       C1186   1.085       .  S
O540        H544   0.992       .  S
O542        H543   0.992       .  S
C545        C546   1.413       .  A
C545        C550   1.413       .  A
C546        C547   1.399       .  A
C546        H551   1.083       .  S
C547        C548   1.402       .  A
C547        O552   1.372       .  S
C548        C549   1.399       .  A
C549        C550   1.395       .  A
C549        H553   1.084       .  S
C550        O554   1.371       .  S
O552        H556   0.992       .  S
O554        H555   0.992       .  S
C557        C558   1.416       .  A
C557        C562   1.425       .  A
C558        C559   1.401       .  A
C558        H563   1.079       .  S
C559        C560   1.403       .  A
C559        O564   1.373       .  S
C560        C561   1.398       .  A
C561        C562   1.403       .  A
C561        H565   1.084       .  S
C562        O566   1.373       .  S
O564        H568   0.992       .  S
O566        H567   0.991       .  S
C569        C570   1.423       .  A
C569        C574   1.424       .  A
C570        C571   1.400       .  A
C570        H575   1.076       .  S
C571        C572   1.406       .  A
C571        O576   1.372       .  S
C572        C573   1.409       .  A
C573        C574   1.419       .  A
C573        H577   1.083       .  S
C574        O578   1.372       .  S
O576        H580   0.992       .  S
O578        H579   0.992       .  S
C581        C582   1.412       .  A
C581        C586   1.426       .  A
C582        C583   1.415       .  A
C582        H587   1.080       .  S
C583        C584   1.412       .  A
C583        O588   1.371       .  S
C584        C585   1.402       .  A
C585        C586   1.402       .  A
C585        H589   1.084       .  S
C586        O590   1.375       .  S
O588        H592   0.991       .  S
O590        H591   0.992       .  S
C593        C594   1.402       .  A
C593        C598   1.398       .  A
C594        C595   1.402       .  A
C594        H599   1.084       .  S
C595        C596   1.422       .  A
C595        O600   1.372       .  S
C596        C597   1.424       .  A
C597        C598   1.400       .  A
C597        H601   1.078       .  S
C598        O602   1.372       .  S
O600        H604   0.992       .  S
O602        H603   0.992       .  S
C605        C606   1.416       .  A
C605        C610   1.416       .  A
C606        C607   1.404       .  A
C606        H611   1.082       .  S
C607        C608   1.409       .  A
C607        O612   1.372       .  S
C608        C609   1.407       .  A
C609        C610   1.396       .  A
C609        H613   1.081       .  S
C610        O614   1.371       .  S
O612        H616   0.992       .  S
O614        H615   0.992       .  S
C617        C618   1.415   1_655  A
C617        C622   1.427       .  A
C618        C619   1.413       .  A
C618        H623   1.080       .  S
C619        C620   1.411       .  A
C619        O624   1.370       .  S
C620        C621   1.398   1_455  A
C621        C622   1.399       .  A
C621        H625   1.084       .  S
C622        O626   1.373       .  S
O624        H628   0.992       .  S
O626        H627   0.992       .  S
C629        C630   1.418   1_655  A
C629        C634   1.434   1_655  A
C630        C631   1.411       .  A
C630        H635   1.083       .  S
C631        C632   1.409       .  A
C631        O636   1.371       .  S
C632        C849   1.500       .  S
C632        C633   1.399       .  A
C633        C634   1.408       .  A
C633       H1289   1.084       .  S
C634        O638   1.372   1_455  S
O636        H640   0.992       .  S
H637       C1285   1.084       .  S
O638        H639   0.992   1_655  S
C641        C642   1.419       .  A
C641        C646   1.423       .  A
C642        C643   1.401       .  A
C642        H647   1.079       .  S
C643        C644   1.404       .  A
C643        O648   1.372       .  S
C644        C645   1.400       .  A
C645        C646   1.405       .  A
C645        H649   1.084   1_655  S
C646        O650   1.373   1_655  S
O648        H652   0.992       .  S
O650        H651   0.991       .  S
C653       C1257   1.563       .  S
C653       C1269   1.568       .  S
C653       C1281   1.580       .  S
C653       C1293   1.569       .  S
C654       C1209   1.569       .  S
C654       C1221   1.584       .  S
C654       C1233   1.568       .  S
C654       C1248   1.576       .  S
Zr655       O656   2.438       .  S
Zr655       O657   2.448       .  S
Zr655       O658   2.441       .  S
Zr655       O661   2.439       .  S
Zr655       O663   2.384       .  S
Zr655       O664   2.390       .  S
Zr655       O665   2.411       .  S
Zr655       O666   2.421       .  S
O656        H712   0.990       .  S
O656        H720   0.990       .  S
O657        C677   1.285       .  A
O658        C679   1.286       .  A
O659       Zr669   2.434       .  S
O659        C678   1.286       .  A
O660       Zr668   2.440       .  S
O660        C679   1.287       .  A
O661        C678   1.283       .  A
O662       Zr670   2.380       .  S
O662        C677   1.275       .  A
O663       Zr668   2.388       .  S
O663       Zr670   2.386       .  S
O664       Zr669   2.385       .  S
O664       Zr670   2.374       .  S
O664        H699   0.965       .  S
O665       Zr668   2.389       .  S
O665       Zr685   2.399       .  S
O665        H702   0.964       .  S
O666       Zr669   2.381       .  S
O666       Zr685   2.415       .  S
Zr667       O692   2.441       .  S
Zr667       O686   2.428       .  S
Zr667       O694   2.488       .  S
Zr667       O682   2.456       .  S
Zr667       O673   2.392       .  S
Zr667       O674   2.410       .  S
Zr667       O675   2.388       .  S
Zr667       O676   2.395       .  S
Zr668       O687   2.436       .  S
Zr668       O680   2.434       .  S
Zr668       O681   2.411       .  S
Zr668       O674   2.404       .  S
Zr668       O675   2.397       .  S
Zr669       O671   2.435       .  S
Zr669       O693   2.440       .  S
Zr669       O695   2.405       .  S
Zr669       O673   2.395       .  S
Zr669       O676   2.397       .  S
Zr670       O696   2.438       .  S
Zr670       O697   2.436       .  S
Zr670       O672   2.436       .  S
Zr670       O673   2.370       .  S
Zr670       O674   2.364       .  S
O671        H708   0.990       .  S
O672        H703   0.990       .  S
O672        H717   0.990       .  S
O674        H700   0.965       .  S
O675       Zr685   2.374       .  S
O676       Zr685   2.379       .  S
O676        H701   0.965       .  S
C677       C1185   1.458       .  S
C678       C1152   1.498       .  S
C679       C1176   1.497       .  S
O680        H716   0.990       .  S
O681        C683   1.282       .  A
O682        C683   1.289       .  A
C683       C1197   1.486       .  S
O684       Zr685   2.438       .  S
O684        H713   0.990       .  S
Zr685       O688   2.436       .  S
Zr685       O689   2.439       .  S
Zr685       O690   2.443       .  S
O686        C691   1.281       .  A
O687        H704   0.990       .  S
O687        H719   0.990       .  S
O688        H705   0.990       .  S
O689        H709   0.991       .  S
O689        H718   0.990       .  S
O690        C691   1.286       .  A
C691       C1164   1.477       .  S
O692        H711   0.990       .  S
O692        H715   0.990       .  S
O693        H707   0.990       .  S
O693        H714   0.990       .  S
O694        C698   1.293       .  A
O695        C698   1.279       .  A
O696        H706   0.990       .  S
O697        H710   0.990       .  S
C698       C1245   1.480       .  S
C721       C1125   1.531       .  S
C721        C722   1.548       .  S
C721        C727   1.533       .  S
C721        C725   1.530       .  S
C722        H729   1.085       .  S
C722        C723   1.372       .  D
C723        C724   1.544       .  S
C723       C1173   1.492       .  S
C724        C728   1.533       .  S
C724        C726   1.540       .  S
C724        H730   1.110       .  S
C725        H731   1.086       .  S
C725        C726   1.366       .  D
C726       C1212   1.483       .  S
C727        H732   1.084       .  S
C727        C728   1.355       .  D
C728       C1137   1.464       .  S
Zr733       O734   2.438       .  S
Zr733       O735   2.475       .  S
Zr733       O736   2.456       .  S
Zr733       O739   2.454       .  S
Zr733       O741   2.378       .  S
Zr733       O742   2.392       .  S
Zr733       O743   2.420       .  S
Zr733       O744   2.427       .  S
O734        H790   0.990       .  S
O734        H798   0.990       .  S
O735        C755   1.292       .  A
O736        C757   1.289       .  A
O737       Zr747   2.440       .  S
O737        C756   1.286       .  A
O738       Zr746   2.441       .  S
O738        C757   1.287       .  A
O739        C756   1.288       .  A
O740       Zr748   2.374       .  S
O740        C755   1.274       .  A
O741       Zr746   2.386       .  S
O741       Zr748   2.381       .  S
O742       Zr747   2.400       .  S
O742       Zr748   2.368       .  S
O742        H777   0.966       .  S
O743       Zr746   2.395       .  S
O743       Zr763   2.393       .  S
O743        H780   0.962       .  S
O744       Zr747   2.381       .  S
O744       Zr763   2.413       .  S
Zr745       O770   2.442       .  S
Zr745       O764   2.429       .  S
Zr745       O772   2.456       .  S
Zr745       O760   2.436       .  S
Zr745       O751   2.390       .  S
Zr745       O752   2.407       .  S
Zr745       O753   2.386       .  S
Zr745       O754   2.393       .  S
Zr746       O765   2.437       .  S
Zr746       O758   2.435       .  S
Zr746       O759   2.422       .  S
Zr746       O752   2.406       .  S
Zr746       O753   2.395       .  S
Zr747       O749   2.435   1_655  S
Zr747       O771   2.440       .  S
Zr747       O773   2.435       .  S
Zr747       O751   2.388       .  S
Zr747       O754   2.397       .  S
Zr748       O774   2.436       .  S
Zr748       O775   2.434       .  S
Zr748       O750   2.437       .  S
Zr748       O751   2.373       .  S
Zr748       O752   2.366       .  S
O749        H786   0.990       .  S
O750        H781   0.990       .  S
O750        H795   0.990       .  S
O752        H778   0.964       .  S
O753       Zr763   2.376       .  S
O754       Zr763   2.384       .  S
O754        H779   0.966       .  S
C757       C1116   1.496       .  S
O758        H794   0.990       .  S
O759        C761   1.283       .  A
O760        C761   1.285       .  A
C761       C1140   1.478       .  S
O762       Zr763   2.436       .  S
O762        H791   0.990       .  S
Zr763       O766   2.436       .  S
Zr763       O767   2.439   1_655  S
Zr763       O768   2.441       .  S
O764        C769   1.283       .  A
O765        H782   0.990       .  S
O765        H797   0.990       .  S
O766        H783   0.990       .  S
O767        H787   0.991       .  S
O767        H796   0.989       .  S
O768        C769   1.285       .  A
C769       C1104   1.495       .  S
O770        H789   0.991       .  S
O770        H793   0.990       .  S
O771        H785   0.990   1_655  S
O771        H792   0.990       .  S
O772        C776   1.288       .  A
O773        C776   1.284       .  A
O774        H784   0.990       .  S
O775        H788   0.990       .  S
C776       C1296   1.484   1_556  S
C799       C1188   1.526       .  S
C799        C800   1.538       .  S
C799        C805   1.522       .  S
C799        C803   1.537       .  S
C800        H807   1.086       .  S
C800        C801   1.369       .  D
C801        C802   1.551       .  S
C801       C1113   1.500       .  S
C802        C806   1.536       .  S
C802        C804   1.558       .  S
C802        H808   1.104       .  S
C803        H809   1.079       .  S
C803        C804   1.376       .  D
C804       C1260   1.507       .  S
C805        H810   1.088       .  S
C805        C806   1.348       .  D
C806       C1200   1.467       .  S
C811       C1065   1.566       .  S
C811       C1080   1.558       .  S
C811       C1149   1.574       .  S
C811       C1161   1.568       .  S
C812       C1041   1.568       .  S
C812       C1053   1.569       .  S
C812       C1092   1.563       .  S
C812       C1101   1.574       .  S
Zr813       O814   2.438       .  S
Zr813       O815   2.464       .  S
Zr813       O816   2.455       .  S
Zr813       O819   2.458       .  S
Zr813       O821   2.383       .  S
Zr813       O822   2.385       .  S
Zr813       O823   2.423       .  S
Zr813       O824   2.421       .  S
O814        H870   0.990       .  S
O814        H878   0.990       .  S
O815        C835   1.290       .  A
O816        C837   1.289       .  A
O817       Zr827   2.432       .  S
O817        C836   1.285       .  A
O818       Zr826   2.428       .  S
O818        C837   1.285       .  A
O819        C836   1.289       .  A
O820       Zr828   2.397       .  S
O820        C835   1.278       .  A
O821       Zr826   2.388       .  S
O821       Zr828   2.379       .  S
O822       Zr827   2.390       .  S
O822       Zr828   2.370       .  S
O822        H857   0.965       .  S
O823       Zr826   2.392       .  S
O823       Zr843   2.404       .  S
O823        H860   0.964       .  S
O824       Zr827   2.382       .  S
O824       Zr843   2.412       .  S
Zr825       O850   2.441       .  S
Zr825       O844   2.445       .  S
Zr825       O852   2.458       .  S
Zr825       O840   2.451       .  S
Zr825       O831   2.400       .  S
Zr825       O832   2.412       .  S
Zr825       O833   2.385       .  S
Zr825       O834   2.395       .  S
Zr826       O845   2.435       .  S
Zr826       O838   2.434       .  S
Zr826       O839   2.422       .  S
Zr826       O832   2.398       .  S
Zr826       O833   2.389       .  S
Zr827       O829   2.435   1_455  S
Zr827       O851   2.439       .  S
Zr827       O853   2.418       .  S
Zr827       O831   2.391       .  S
Zr827       O834   2.403       .  S
Zr828       O854   2.435       .  S
Zr828       O855   2.435       .  S
Zr828       O830   2.436       .  S
Zr828       O831   2.379       .  S
Zr828       O832   2.373       .  S
O829        H866   0.990       .  S
O830        H861   0.990       .  S
O830        H875   0.990       .  S
O832        H858   0.965       .  S
O833       Zr843   2.376       .  S
O834       Zr843   2.380       .  S
O834        H859   0.965       .  S
C835       C1017   1.484       .  S
C836       C1272   1.490       .  S
C837       C1005   1.496       .  S
O838        H874   0.990       .  S
O839        C841   1.284       .  A
O840        C841   1.287       .  A
C841       C1032   1.486       .  S
O842       Zr843   2.438       .  S
O842        H871   0.990       .  S
Zr843       O846   2.434       .  S
Zr843       O847   2.438   1_455  S
Zr843       O848   2.452       .  S
O844        C849   1.286       .  A
O845        H862   0.990       .  S
O845        H877   0.990       .  S
O846        H863   0.990       .  S
O847        H867   0.990       .  S
O847        H876   0.990       .  S
O848        C849   1.287       .  A
O850        H869   0.990       .  S
O850        H873   0.991       .  S
O851        H865   0.990       .  S
O851        H872   0.990       .  S
O852        C856   1.288       .  A
O853        C856   1.282       .  A
O854        H864   0.990       .  S
O855        H868   0.991       .  S
C856       C1056   1.493   1_554  S
C879        C981   1.535       .  S
C879        C880   1.546       .  S
C879        C885   1.530       .  S
C879        C883   1.524       .  S
C880        H887   1.086       .  S
C880        C881   1.373       .  D
C881        C882   1.547       .  S
C881       C1008   1.499       .  S
C882        C886   1.538       .  S
C882        C884   1.550       .  S
C882        H888   1.108       .  S
C883        H889   1.083       .  S
C883        C884   1.370       .  D
C884       C1044   1.505       .  S
C885        H890   1.081       .  S
C885        C886   1.358       .  D
C886        C993   1.466       .  S
Zr891       O892   2.439       .  S
Zr891       O893   2.480       .  S
Zr891       O894   2.463       .  S
Zr891       O897   2.461       .  S
Zr891       O899   2.381       .  S
Zr891       O900   2.389       .  S
Zr891       O901   2.427       .  S
Zr891       O902   2.435       .  S
O892        H948   0.990       .  S
O892        H956   0.990       .  S
O893        C913   1.292       .  A
O894        C915   1.290       .  A
O895       Zr905   2.435       .  S
O895        C914   1.284       .  A
O896       Zr904   2.428       .  S
O896        C915   1.283       .  A
O897        C914   1.288       .  A
O898       Zr906   2.378       .  S
O898        C913   1.274       .  A
O899       Zr904   2.388       .  S
O899       Zr906   2.383       .  S
O900       Zr905   2.399       .  S
O900       Zr906   2.377       .  S
O900        H935   0.965       .  S
O901       Zr904   2.394       .  S
O901       Zr921   2.402       .  S
O901        H938   0.963       .  S
O902       Zr905   2.379       .  S
O902       Zr921   2.422       .  S
Zr903       O928   2.442   1_565  S
Zr903       O930   2.469       .  S
Zr903       O909   2.392       .  S
Zr903       O910   2.414       .  S
Zr903       O911   2.384       .  S
Zr903       O912   2.396       .  S
Zr904       O923   2.435       .  S
Zr904       O916   2.436       .  S
Zr904       O917   2.415       .  S
Zr904       O910   2.400       .  S
Zr904       O911   2.396       .  S
Zr905       O907   2.433       .  S
Zr905       O929   2.441       .  S
Zr905       O931   2.409       .  S
Zr905       O909   2.389       .  S
Zr905       O912   2.399       .  S
Zr906       O932   2.438       .  S
Zr906       O933   2.435       .  S
Zr906       O908   2.438       .  S
Zr906       O909   2.362       .  S
Zr906       O910   2.371       .  S
O907        H944   0.990       .  S
O908        H939   0.990       .  S
O908        H953   0.990       .  S
O910        H936   0.964       .  S
O911       Zr921   2.378       .  S
O912       Zr921   2.374       .  S
O912        H937   0.966       .  S
C913        C984   1.478       .  S
C914       C1236   1.498       .  S
C915        C969   1.498       .  S
O916        H952   0.990       .  S
O918        C919   1.288       .  A
C919        C996   1.483       .  S
O920       Zr921   2.436       .  S
O920        H949   0.990       .  S
Zr921       O924   2.436       .  S
Zr921       O925   2.440       .  S
Zr921       O926   2.444   1_565  S
O922        C927   1.286       .  A
O923        H940   0.990       .  S
O923        H955   0.990       .  S
O924        H941   0.990   1_565  S
O925        H945   0.990       .  S
O925        H954   0.990       .  S
C927       C1224   1.502       .  S
O928        H947   0.991       .  S
O928        H951   0.990   1_545  S
O929        H943   0.990       .  S
O929        H950   0.991       .  S
O930        C934   1.290       .  A
O931        C934   1.279       .  A
O932        H942   0.990       .  S
O933        H946   0.991       .  S
C934       C1077   1.467       .  S
C957       C1020   1.536       .  S
C957        C958   1.546       .  S
C957        C963   1.536       .  S
C957        C961   1.533       .  S
C958        H965   1.085       .  S
C958        C959   1.368       .  D
C959        C960   1.541       .  S
C959        C972   1.485       .  S
C960        C964   1.534       .  S
C960        C962   1.538       .  S
C960        H966   1.111       .  S
C961        H967   1.086       .  S
C961        C962   1.367       .  D
C962       C1068   1.476       .  S
C963        H968   1.082       .  S
C963        C964   1.360       .  D
C964       C1029   1.470       .  S
C969        C970   1.409       .  A
C969        C974   1.420       .  A
C970        C971   1.407   1_556  A
C970        H975   1.083       .  S
C971        C972   1.408       .  A
C971        O976   1.372       .  S
C972        C973   1.398       .  A
C973        C974   1.400   1_554  A
C973        H977   1.084       .  S
C974        O978   1.371       .  S
O976        H980   0.992       .  S
O978        H979   0.992       .  S
C981        C982   1.415       .  A
C981        C986   1.412       .  A
C982        C983   1.402       .  A
C982        H987   1.076       .  S
C983        C984   1.400       .  A
C983        O988   1.370       .  S
C984        C985   1.407       .  A
C985        C986   1.401       .  A
C985        H989   1.084       .  S
C986        O990   1.373       .  S
O988        H992   0.991       .  S
O990        H991   0.992       .  S
C993        C994   1.396       .  A
C993        C998   1.406       .  A
C994        C995   1.399       .  A
C994        H999   1.084       .  S
C995        C996   1.417       .  A
C995       O1000   1.372       .  S
C996        C997   1.405       .  A
C997        C998   1.395       .  A
C997       H1001   1.083       .  S
C998       O1002   1.373       .  S
O1000      H1004   0.992       .  S
O1002      H1003   0.992       .  S
C1005      C1006   1.408       .  A
C1005      C1010   1.413       .  A
C1006      C1007   1.401       .  A
C1006      H1011   1.083       .  S
C1007      C1008   1.411       .  A
C1007      O1012   1.372       .  S
C1008      C1009   1.408       .  A
C1009      C1010   1.407       .  A
C1009      H1013   1.083       .  S
C1010      O1014   1.371       .  S
O1012      H1016   0.992       .  S
O1014      H1015   0.992       .  S
C1017      C1018   1.407       .  A
C1017      C1022   1.404       .  A
C1018      C1019   1.400       .  A
C1018      H1023   1.084       .  S
C1019      C1020   1.411       .  A
C1019      O1024   1.374       .  S
C1020      C1021   1.416       .  A
C1021      C1022   1.404       .  A
C1021      H1025   1.078       .  S
C1022      O1026   1.371       .  S
O1024      H1028   0.992       .  S
O1026      H1027   0.991       .  S
C1029      C1030   1.402       .  A
C1029      C1034   1.401       .  A
C1030      C1031   1.396       .  A
C1030      H1035   1.084       .  S
C1031      O1036   1.372       .  S
C1033      C1034   1.397   1_545  A
C1034      O1038   1.370       .  S
O1036      H1040   0.992       .  S
O1038      H1039   0.992       .  S
C1041      C1042   1.412       .  A
C1041      C1046   1.425       .  A
C1042      C1043   1.386       .  A
C1042      H1047   1.083       .  S
C1043      C1044   1.410       .  A
C1043      O1048   1.371       .  S
C1044      C1045   1.410       .  A
C1045      C1046   1.418       .  A
C1045      H1049   1.082       .  S
C1046      O1050   1.370       .  S
O1048      H1052   0.992       .  S
O1050      H1051   0.991       .  S
C1053      C1054   1.411       .  A
C1053      C1058   1.423       .  A
C1054      C1055   1.398       .  A
C1054      H1059   1.079       .  S
C1055      C1056   1.413       .  A
C1055      O1060   1.371       .  S
C1056      C1057   1.403       .  A
C1057      C1058   1.402       .  A
C1057      H1061   1.083       .  S
C1058      O1062   1.371       .  S
O1060      H1064   0.992       .  S
O1062      H1063   0.992       .  S
C1065      C1066   1.419       .  A
C1065      C1070   1.422       .  A
C1066      C1067   1.396       .  A
C1066      H1071   1.081       .  S
C1067      C1068   1.398       .  A
C1067      O1072   1.372       .  S
C1068      C1069   1.398       .  A
C1069      C1070   1.405       .  A
C1069      H1073   1.082       .  S
C1070      O1074   1.369       .  S
O1072      H1076   0.992       .  S
O1074      H1075   0.992       .  S
C1077      C1078   1.400       .  A
C1077      C1082   1.401       .  A
C1078      C1079   1.406       .  A
C1078      H1083   1.084       .  S
C1079      C1080   1.422       .  A
C1079      O1084   1.372       .  S
C1080      C1081   1.420       .  A
C1081      C1082   1.393       .  A
C1081      H1085   1.083       .  S
C1082      O1086   1.372       .  S
O1084      H1088   0.993       .  S
O1086      H1087   0.992       .  S
C1089      C1090   1.407       .  A
C1089      C1094   1.402       .  A
C1090      C1091   1.414   1_655  A
C1090      H1095   1.083       .  S
C1091      C1092   1.420       .  A
C1091      O1096   1.371       .  S
C1092      C1093   1.417       .  A
C1093      C1094   1.387   1_455  A
C1093      H1097   1.080       .  S
O1096      H1100   0.992   1_455  S
O1098      H1099   0.992       .  S
C1101      C1102   1.418       .  A
C1101      C1106   1.419   1_455  A
C1102      C1103   1.402       .  A
C1102      H1107   1.081       .  S
C1103      C1104   1.409   1_455  A
C1103      O1108   1.372       .  S
C1104      C1105   1.408       .  A
C1105      C1106   1.404       .  A
C1105      H1109   1.083       .  S
C1106      O1110   1.370       .  S
O1108      H1112   0.992       .  S
O1110      H1111   0.992       .  S
C1113      C1114   1.409       .  A
C1113      C1118   1.410       .  A
C1114      C1115   1.405       .  A
C1114      H1119   1.083       .  S
C1115      C1116   1.412       .  A
C1115      O1120   1.372       .  S
C1116      C1117   1.409       .  A
C1117      C1118   1.406       .  A
C1117      H1121   1.083       .  S
C1118      O1122   1.372       .  S
O1120      H1124   0.992       .  S
O1122      H1123   0.992       .  S
C1125      C1126   1.417       .  A
C1125      C1130   1.408       .  A
C1126      C1127   1.400       .  A
C1126      H1131   1.080       .  S
C1127      C1128   1.402       .  A
C1127      O1132   1.371       .  S
C1128      C1129   1.409       .  A
C1129      C1130   1.398       .  A
C1129      H1133   1.084       .  S
C1130      O1134   1.374       .  S
O1132      H1136   0.992       .  S
O1134      H1135   0.992       .  S
C1137      C1138   1.396       .  A
C1137      C1142   1.405       .  A
C1138      C1139   1.397       .  A
C1138      H1143   1.084       .  S
C1139      C1140   1.415       .  A
C1139      O1144   1.372       .  S
C1140      C1141   1.405       .  A
C1141      C1142   1.394       .  A
C1141      H1145   1.083       .  S
C1142      O1146   1.373       .  S
O1144      H1148   0.992       .  S
O1146      H1147   0.992       .  S
C1149      C1150   1.419       .  A
C1150      H1155   1.083       .  S
C1151      C1152   1.413       .  A
C1151      O1156   1.371       .  S
C1152      C1153   1.395       .  A
C1153      C1154   1.387       .  A
C1153      H1157   1.081       .  S
C1154      O1158   1.375       .  S
O1158      H1159   0.993       .  S
C1161      C1162   1.414       .  A
C1161      C1166   1.429       .  A
C1162      C1163   1.409       .  A
C1162      H1167   1.080       .  S
C1163      C1164   1.409       .  A
C1163      O1168   1.371       .  S
C1164      C1165   1.392       .  A
C1165      C1166   1.398       .  A
C1165      H1169   1.084       .  S
C1166      O1170   1.374       .  S
O1168      H1172   0.992       .  S
O1170      H1171   0.992       .  S
C1173      C1174   1.404       .  A
C1173      C1178   1.409       .  A
C1174      C1175   1.405   1_556  A
C1174      H1179   1.084       .  S
C1175      C1176   1.417       .  A
C1175      O1180   1.371       .  S
C1176      C1177   1.408       .  A
C1177      C1178   1.401   1_554  A
C1177      H1181   1.083       .  S
C1178      O1182   1.371       .  S
O1180      H1184   0.992       .  S
O1182      H1183   0.992       .  S
C1185      C1186   1.397       .  A
C1185      C1190   1.401       .  A
C1187      C1188   1.417       .  A
C1187      O1192   1.373       .  S
C1189      C1190   1.402       .  A
C1189      H1193   1.078       .  S
C1190      O1194   1.372       .  S
O1192      H1196   0.992       .  S
O1194      H1195   0.992       .  S
C1197      C1198   1.411       .  A
C1197      C1202   1.413       .  A
C1198      C1199   1.397       .  A
C1198      H1203   1.083       .  S
C1199      C1200   1.403       .  A
C1199      O1204   1.372       .  S
C1200      C1201   1.400       .  A
C1201      C1202   1.397       .  A
C1201      H1205   1.083       .  S
C1202      O1206   1.371       .  S
O1204      H1208   0.992       .  S
O1206      H1207   0.992       .  S
C1209      C1210   1.415       .  A
C1209      C1214   1.426       .  A
C1210      C1211   1.399       .  A
C1210      H1215   1.078       .  S
C1211      C1212   1.403       .  A
C1211      O1216   1.372       .  S
C1212      C1213   1.399       .  A
C1213      C1214   1.406       .  A
C1213      H1217   1.084       .  S
C1214      O1218   1.374       .  S
O1216      H1220   0.992       .  S
O1218      H1219   0.992       .  S
C1221      C1222   1.423       .  A
C1221      C1226   1.425       .  A
C1222      C1223   1.398       .  A
C1222      H1227   1.076       .  S
C1223      C1224   1.404       .  A
C1223      O1228   1.373       .  S
C1224      C1225   1.409       .  A
C1225      C1226   1.419       .  A
C1225      H1229   1.083       .  S
C1226      O1230   1.373       .  S
O1228      H1232   0.992       .  S
O1230      H1231   0.992       .  S
C1233      C1234   1.414       .  A
C1233      C1238   1.426       .  A
C1234      C1235   1.413       .  A
C1234      H1239   1.080       .  S
C1235      C1236   1.412       .  A
C1235      O1240   1.368       .  S
C1236      C1237   1.400       .  A
C1237      C1238   1.399       .  A
C1237      H1241   1.084       .  S
C1238      O1242   1.374       .  S
O1240      H1244   0.990       .  S
O1242      H1243   0.992       .  S
C1245      C1246   1.402       .  A
C1245      C1250   1.399       .  A
C1246      C1247   1.402       .  A
C1246      H1251   1.084       .  S
C1247      C1248   1.422       .  A
C1247      O1252   1.372       .  S
C1248      C1249   1.425       .  A
C1249      C1250   1.404       .  A
C1249      H1253   1.079       .  S
C1250      O1254   1.371       .  S
O1252      H1256   0.992       .  S
O1254      H1255   0.992       .  S
C1257      C1258   1.417       .  A
C1257      C1262   1.416       .  A
C1258      C1259   1.405       .  A
C1258      H1263   1.082       .  S
C1259      C1260   1.411       .  A
C1259      O1264   1.371       .  S
C1260      C1261   1.409       .  A
C1261      C1262   1.398       .  A
C1261      H1265   1.080       .  S
C1262      O1266   1.371       .  S
O1264      H1268   0.992       .  S
O1266      H1267   0.992       .  S
C1269      C1270   1.415   1_655  A
C1269      C1274   1.427       .  A
C1270      C1271   1.412       .  A
C1270      H1275   1.080       .  S
C1271      C1272   1.409       .  A
C1271      O1276   1.369       .  S
C1272      C1273   1.397   1_455  A
C1273      C1274   1.398       .  A
C1273      H1277   1.084       .  S
C1274      O1278   1.373       .  S
O1276      H1280   0.992       .  S
O1278      H1279   0.992       .  S
C1281      C1282   1.420   1_655  A
C1281      C1286   1.433   1_655  A
C1282      C1283   1.414       .  A
C1282      H1287   1.083       .  S
C1283      C1284   1.410       .  A
C1283      O1288   1.371       .  S
C1284      C1285   1.399       .  A
C1285      C1286   1.406       .  A
C1286      O1290   1.372   1_455  S
O1288      H1292   0.992       .  S
O1290      H1291   0.992   1_655  S
C1293      C1294   1.417       .  A
C1293      C1298   1.424   1_655  A
C1294      C1295   1.402       .  A
C1294      H1299   1.079       .  S
C1295      C1296   1.405       .  A
C1295      O1300   1.372       .  S
C1296      C1297   1.401       .  A
C1297      C1298   1.406   1_655  A
C1297      H1301   1.084   1_655  S
C1298      O1302   1.374       .  S
O1300      H1304   0.992       .  S
O1302      H1303   0.991       .  S
