geometry optimzed in LAMMPS
_audit_creation_date              2020-11-30 
_audit_creation_method            'lammps2cif' 
_symmetry_space_group_name_H-M    'P1' 
_symmetry_Int_Tables_number       1 
_symmetry_cell_setting            triclinic 
loop_ 
_symmetry_equiv_pos_as_xyz 
  x,y,z 
_cell_length_a                    26.56799981 
_cell_length_b                    21.795009926207282 
_cell_length_c                    25.697092788189163 
_cell_angle_alpha                 88.90355972592884 
_cell_angle_beta                  89.99557570798456 
_cell_angle_gamma                 88.16803080459084 
loop_ 
_atom_site_label 
_atom_site_type_symbol 
_atom_site_fract_x 
_atom_site_fract_y 
_atom_site_fract_z 
_atom_site_charge 
Zn1        Zn  0.03812641  0.44680479  0.04007971     1.49700
Zn2        Zn  0.95032294  0.44774244  0.95752703     1.49400
Zn3        Zn  0.94543188  0.54632584  0.04552477     1.49100
Zn4        Zn  0.03144039  0.55797855  0.96113660     1.49500
O5          O  0.99110864  0.49987109  0.00071567    -1.83600
O6          O  0.02560133  0.35721152  0.03138623    -0.74300
O7          O  0.87559782  0.46403881  0.96705643    -0.74100
O8          O  0.96065697  0.52407775  0.11902540    -0.73600
O9          O  0.96346707  0.35688602  0.97369378    -0.74300
O10         O  0.02968777  0.46356211  0.11467612    -0.73900
O11         O  0.87267517  0.52973835  0.03177889    -0.74500
O12         O  0.01281995  0.64673740  0.97732233    -0.73900
O13         O  0.96699074  0.46596915  0.88330387    -0.74600
O14         O  0.95352971  0.63761591  0.03762068    -0.74000
O15         O  0.02086735  0.54264858  0.88607945    -0.74500
O16         O  0.10631449  0.54514474  0.97288903    -0.74400
O17         O  0.11045021  0.46144191  0.02304395    -0.74200
C18         C  0.99446344  0.32847918  0.00422503     0.77600
C19         C  0.85053850  0.49687562  0.99898125     0.78100
C20         C  0.99648734  0.49298842  0.14054109     0.77100
C21         C  0.98142370  0.67066673  0.00917690     0.77400
C22         C  0.99527735  0.50460810  0.86111435     0.78600
C23         C  0.13197605  0.50348808  0.99723804     0.77600
Zn24       Zn  0.96679640  0.44355781  0.46237437     1.49700
Zn25       Zn  0.05405349  0.54406670  0.45533111     1.49400
Zn26       Zn  0.96692323  0.55459116  0.53837162     1.49100
Zn27       Zn  0.05411855  0.44414858  0.54565611     1.49500
O28         O  0.01054868  0.49663743  0.50076437    -1.83600
O29         O  0.97673494  0.45929668  0.38735773    -0.74300
O30         O  0.03924022  0.63544502  0.45847550    -0.74100
O31         O  0.89270416  0.53970499  0.52832058    -0.73600
O32         O  0.04249327  0.52029163  0.38241180    -0.74300
O33         O  0.89324426  0.45913039  0.47719669    -0.73900
O34         O  0.97847025  0.64366717  0.51740467    -0.74500
O35         O  0.03906167  0.46522791  0.61920215    -0.73900
O36         O  0.12737011  0.52911848  0.47136642    -0.74600
O37         O  0.98047794  0.54105045  0.61384838    -0.74000
O38         O  0.12824472  0.45729719  0.53357176    -0.74500
O39         O  0.04245972  0.35342659  0.53608816    -0.74400
O40         O  0.98216051  0.35387040  0.47635170    -0.74200
C41         C  0.00890294  0.48884041  0.36128647     0.77600
C42         C  0.00820209  0.66807520  0.48460297     0.78100
C43         C  0.86933566  0.49940625  0.50348494     0.77100
C44         C  0.00902259  0.50413287  0.64017881     0.77400
C45         C  0.15137841  0.49318766  0.50284267     0.78600
C46         C  0.01279983  0.32501295  0.50677696     0.77600
Zn47       Zn  0.44821540  0.55509941  0.95545781     1.49700
Zn48       Zn  0.44691035  0.45658828  0.04612693     1.49400
Zn49       Zn  0.53451607  0.44342652  0.96303669     1.49100
Zn50       Zn  0.53553621  0.55449807  0.03889903     1.49500
O51         O  0.49127488  0.50231727  0.00035676    -1.83600
O52         O  0.37349677  0.54226435  0.96691842    -0.74300
O53         O  0.46082751  0.36573202  0.04405333    -0.74100
O54         O  0.52188625  0.45717706  0.88718437    -0.73600
O55         O  0.37380876  0.47116961  0.02964397    -0.74300
O56         O  0.46382556  0.53369093  0.88203556    -0.73900
O57         O  0.52115018  0.35488723  0.98483481    -0.74500
O58         O  0.60864925  0.53689065  0.02523380    -0.73900
O59         O  0.45820219  0.48030000  0.11887984    -0.74600
O60         O  0.60902617  0.45687774  0.97349308    -0.74000
O61         O  0.52531104  0.53894374  0.11365044    -0.74500
O62         O  0.52210451  0.64463123  0.02459443    -0.74400
O63         O  0.46149302  0.64566049  0.96511793    -0.74200
C64         C  0.35003998  0.50656932  0.99761969     0.77600
C65         C  0.49106602  0.33194886  0.01812972     0.78100
C66         C  0.49370078  0.49465870  0.86098079     0.77100
C67         C  0.63244652  0.49652767  0.99902892     0.77400
C68         C  0.49260842  0.51053223  0.13985182     0.78600
C69         C  0.49176378  0.67379233  0.99403500     0.77600
Zn70       Zn  0.46998015  0.44324727  0.53967972     1.49700
Zn71       Zn  0.46299738  0.55446854  0.46071817     1.49400
Zn72       Zn  0.55111399  0.55358250  0.54296810     1.49100
Zn73       Zn  0.55582324  0.45462607  0.45525199     1.49500
O74         O  0.51017384  0.50138257  0.49996659    -1.83600
O75         O  0.39513522  0.45462949  0.52704963    -0.74300
O76         O  0.47481151  0.64435518  0.47011140    -0.74100
O77         O  0.53449933  0.53523434  0.61735233    -0.73600
O78         O  0.39067039  0.53825539  0.47681326    -0.74300
O79         O  0.48033515  0.45889638  0.61475584    -0.73900
O80         O  0.53787364  0.64456295  0.52674660    -0.74500
O81         O  0.62878705  0.46866575  0.47060451    -0.73900
O82         O  0.47224480  0.53842826  0.38615836    -0.74600
O83         O  0.62595563  0.53661204  0.53364652    -0.74000
O84         O  0.54163582  0.47844035  0.38185814    -0.74500
O85         O  0.54650711  0.36343616  0.46194156    -0.74400
O86         O  0.48905823  0.35473190  0.52412706    -0.74200
C87         C  0.36931801  0.49580888  0.50231616     0.77600
C88         C  0.50631113  0.67307889  0.49688232     0.78100
C89         C  0.50619698  0.49669995  0.63971876     0.77100
C90         C  0.65098046  0.50197246  0.50302448     0.77400
C91         C  0.50575231  0.50945538  0.36034604     0.78600
C92         C  0.51937881  0.33059468  0.49136570     0.77600
N93         N  0.98258215  0.93372091  0.04554026    -0.36100
N94         N  0.98452592  0.93636578  0.92971001    -0.56700
N95         N  0.96874838  0.06796752  0.92962164    -0.36100
N96         N  0.97370415  0.06638390  0.04539370    -0.56700
C97         C  0.99801027  0.87513362  0.03596920     0.27500
C98         C  0.99042125  0.94383539  0.09694655     0.27500
C99         C  0.97585499  0.05984370  0.87777911     0.27500
C100        C  0.97169993  0.12872105  0.93864669     0.27500
C101        C  0.98701934  0.87492555  0.93845387     0.36100
C102        C  0.97751945  0.94528827  0.87774010     0.36100
C103        C  0.96834515  0.05594114  0.09734975     0.36100
C104        C  0.96285209  0.12681137  0.03643717     0.36100
C105        C  0.01537847  0.84761483  0.08203223    -0.21400
C106        C  0.01020543  0.89060057  0.12037986    -0.21400
C107        C  0.98219820  0.11645092  0.85356784    -0.21400
C108        C  0.98001963  0.15963555  0.89180567    -0.21400
C109        C  0.98212158  0.84484667  0.89164588    -0.22500
C110        C  0.97637541  0.88922048  0.85338173    -0.22500
C111        C  0.95453676  0.11016491  0.12151855    -0.22500
C112        C  0.95086470  0.15484344  0.08308321    -0.22500
C113        C  0.99564551  0.84487815  0.98735838    -0.17800
C114        C  0.97875948  0.99904107  0.12374722    -0.17800
C115        C  0.96533398  0.15793727  0.98730266    -0.17800
C116        C  0.97528107  0.00314294  0.85134523    -0.17800
H117        H  0.03043778  0.80125064  0.08764389     0.15100
H118        H  0.02025064  0.88338129  0.16089059     0.15100
H119        H  0.98782812  0.12609041  0.81257680     0.15100
H120        H  0.98390332  0.20850294  0.88554082     0.15100
H121        H  0.98284056  0.79586207  0.88541917     0.13400
H122        H  0.97240200  0.88087741  0.81223861     0.15000
H123        H  0.94812500  0.11701662  0.16262110     0.13400
H124        H  0.94058412  0.20264103  0.08899274     0.13400
H125        H  0.96331371  0.96280317  0.01950286     0.26600
H126        H  0.95782170  0.03517012  0.95666625     0.26600
N127        N  0.97141800  0.93460127  0.54802353    -0.36100
N128        N  0.97887359  0.06678465  0.54401479    -0.56700
N129        N  0.97804691  0.06351341  0.42846358    -0.36100
N130        N  0.97870631  0.93060305  0.43256636    -0.56700
C131        C  0.97854572  0.94557937  0.59935520     0.27500
C132        C  0.97986879  0.87371792  0.54106918     0.27500
C133        C  0.98736823  0.12347369  0.43602092     0.27500
C134        C  0.98619684  0.05182240  0.37727947     0.27500
C135        C  0.96969926  0.05959905  0.59566842     0.36100
C136        C  0.97359383  0.12758311  0.53295194     0.36100
C137        C  0.97153866  0.87040931  0.44344967     0.36100
C138        C  0.97307666  0.93874711  0.38029791     0.36100
C139        C  0.99086065  0.89090827  0.62534354    -0.21400
C140        C  0.99180111  0.84573252  0.58873685    -0.21400
C141        C  0.00103211  0.15034113  0.38888490    -0.21400
C142        C  0.99998238  0.10548585  0.35198666    -0.21400
C143        C  0.95896273  0.11598525  0.61759533    -0.22500
C144        C  0.96095766  0.15890451  0.57795014    -0.22500
C145        C  0.96177561  0.84014432  0.39769017    -0.22500
C146        C  0.96307034  0.88316126  0.35785744    -0.22500
C147        C  0.97299471  0.00318046  0.62388656    -0.17800
C148        C  0.97523868  0.84171393  0.49368708    -0.17800
C149        C  0.97933112  0.99493867  0.35219499    -0.17800
C150        C  0.98172985  0.15579761  0.48341756    -0.17800
H151        H  0.99859494  0.88418789  0.66645140     0.15100
H152        H  0.00045352  0.79756395  0.59650687     0.15100
H153        H  0.01048765  0.19765950  0.38155013     0.15100
H154        H  0.00825317  0.11208497  0.31108275     0.15100
H155        H  0.95025714  0.12521801  0.65790208     0.13400
H156        H  0.95358339  0.20766257  0.58205964     0.13400
H157        H  0.95444162  0.79198577  0.39325005     0.13400
H158        H  0.95738907  0.87432463  0.31701765     0.13400
H159        H  0.95682172  0.96539896  0.52028066     0.26600
H160        H  0.96219051  0.03428382  0.45565183     0.26600
N161        N  0.51538081  0.93317354  0.95849336    -0.36100
N162        N  0.51590923  0.06525850  0.95434760    -0.56700
N163        N  0.51270652  0.06853378  0.06994762    -0.36100
N164        N  0.51922444  0.93567127  0.07408030    -0.56700
C165        C  0.52515604  0.94244103  0.90706668     0.27500
C166        C  0.52684105  0.87353791  0.97010740     0.27500
C167        C  0.52187445  0.12804749  0.05810773     0.27500
C168        C  0.52214326  0.05924374  0.12159239     0.27500
C169        C  0.50998487  0.05548164  0.90276465     0.36100
C170        C  0.50955807  0.12638164  0.96094524     0.36100
C171        C  0.51468208  0.87459859  0.06722067     0.36100
C172        C  0.51300040  0.94568100  0.12576189     0.36100
C173        C  0.54256683  0.88791555  0.88572682    -0.21400
C174        C  0.54397075  0.84463990  0.92542552    -0.21400
C175        C  0.53652186  0.15708431  0.10302611    -0.21400
C176        C  0.53626626  0.11399882  0.14295712    -0.21400
C177        C  0.49980542  0.11052658  0.87653934    -0.22500
C178        C  0.49943598  0.15536002  0.91327558    -0.22500
C179        C  0.50611308  0.84578758  0.11491988    -0.22500
C180        C  0.50530445  0.89058244  0.15182691    -0.22500
C181        C  0.51744877  0.99822649  0.87841348    -0.17800
C182        C  0.52026032  0.84357444  0.01922253    -0.17800
C183        C  0.51714589  0.00322273  0.15030248    -0.17800
C184        C  0.51647182  0.15747231  0.00827069    -0.17800
H185        H  0.55342313  0.88012565  0.84573497     0.15100
H186        H  0.55636730  0.79716547  0.92164506     0.15100
H187        H  0.54662705  0.20448416  0.10682142     0.15100
H188        H  0.54592313  0.12213743  0.18308713     0.15100
H189        H  0.49409305  0.11778723  0.83514250     0.13400
H190        H  0.49311827  0.20398645  0.90552486     0.13400
H191        H  0.50118200  0.79736001  0.12259352     0.13400
H192        H  0.49997021  0.88322094  0.19320203     0.13400
H193        H  0.49698328  0.96375260  0.98319942     0.26600
H194        H  0.49677224  0.03766678  0.04495641     0.26600
N195        N  0.51770334  0.06820820  0.45703908    -0.36100
N196        N  0.52675267  0.93578505  0.45696765    -0.56700
N197        N  0.53211561  0.93379228  0.57265398    -0.36100
N198        N  0.51652387  0.06537397  0.57284668    -0.56700
C199        C  0.50810144  0.05785699  0.40599178     0.27500
C200        C  0.50128132  0.12625933  0.46722748     0.27500
C201        C  0.52892900  0.87306974  0.56347604     0.27500
C202        C  0.52430861  0.94186524  0.62443311     0.27500
C203        C  0.53144569  0.94631737  0.40494605     0.36100
C204        C  0.53730913  0.87523040  0.46564445     0.36100
C205        C  0.51536915  0.12678484  0.56408830     0.36100
C206        C  0.52395819  0.05627901  0.62470996     0.36100
C207        C  0.48591778  0.11028896  0.38348897    -0.21400
C208        C  0.48120517  0.15308209  0.42205442    -0.21400
C209        C  0.52000178  0.84214996  0.61018653    -0.21400
C210        C  0.51737819  0.88531226  0.64845765    -0.21400
C211        C  0.54455312  0.89205906  0.38048037    -0.22500
C212        C  0.54847097  0.84726111  0.41876686    -0.22500
C213        C  0.52187371  0.15672169  0.61073460    -0.22500
C214        C  0.52696062  0.11221440  0.64899902    -0.22500
C215        C  0.52034836  0.00314558  0.37874697    -0.17800
C216        C  0.50557792  0.15682360  0.51546073    -0.17800
C217        C  0.52463816  0.99846639  0.65103770    -0.17800
C218        C  0.53507405  0.84391759  0.51472545    -0.17800
H219        H  0.47406224  0.11713547  0.34346715     0.15100
H220        H  0.46483259  0.19892997  0.41717737     0.15100
H221        H  0.51568422  0.79333014  0.61628706     0.15100
H222        H  0.51096407  0.87581786  0.68935725     0.15100
H223        H  0.55012166  0.88517560  0.33925707     0.13400
H224        H  0.55827319  0.79939618  0.41256495     0.13400
H225        H  0.52234130  0.20568166  0.61688111     0.13400
H226        H  0.53173939  0.12035300  0.69008279     0.13400
H227        H  0.53890137  0.03991745  0.48218310     0.26600
H228        H  0.54328299  0.96661709  0.54572895     0.26600
C229        C  0.56464236  0.00905214  0.79351199    -0.12900
C230        C  0.51962971  0.99708364  0.82007665     0.09300
C231        C  0.47641510  0.98520248  0.79088643    -0.12900
C232        C  0.47809071  0.98557377  0.73620468    -0.12900
C233        C  0.52314039  0.99728107  0.70955162     0.09300
C234        C  0.56643568  0.00890191  0.73881876    -0.12900
H235        H  0.59836273  0.01855683  0.81520424     0.13300
H236        H  0.44127303  0.97614532  0.81049923     0.13300
H237        H  0.44418946  0.97678202  0.71455327     0.13300
H238        H  0.60152474  0.01828257  0.71922215     0.13300
C239        C  0.47295315  0.00261322  0.23776742    -0.12900
C240        C  0.51797696  0.00451978  0.20899491     0.09300
C241        C  0.56372719  0.00650989  0.23644086    -0.12900
C242        C  0.56439927  0.00673941  0.29126638    -0.12900
C243        C  0.51936790  0.00469407  0.32003335     0.09300
C244        C  0.47364166  0.00253807  0.29258825    -0.12900
H245        H  0.43722091  0.00076788  0.21768691     0.13300
H246        H  0.59896823  0.00771972  0.21533120     0.13300
H247        H  0.60016125  0.00807439  0.31136082     0.13300
H248        H  0.43844166  0.00056750  0.31370611     0.13300
C249        C  0.93071416  0.98878372  0.76561309    -0.12900
C250        C  0.97433561  0.00430743  0.79281220     0.09300
C251        C  0.01727347  0.01994025  0.76404982    -0.12900
C252        C  0.01650498  0.02049752  0.70937935    -0.12900
C253        C  0.97305661  0.00448206  0.68225831     0.09300
C254        C  0.93017538  0.98851973  0.71090428    -0.12900
H255        H  0.89721456  0.97637090  0.78684936     0.13300
H256        H  0.05141516  0.03172425  0.78404147     0.13300
H257        H  0.05004530  0.03270342  0.68812532     0.13300
H258        H  0.89631633  0.97585112  0.69084290     0.13300
C259        C  0.93396734  0.99269230  0.21062478    -0.12900
C260        C  0.97911141  0.99745420  0.18242705     0.09300
C261        C  0.02448210  0.00050065  0.21038281    -0.12900
C262        C  0.02468055  0.99873572  0.26521158    -0.12900
C263        C  0.97946593  0.99440464  0.29346111     0.09300
C264        C  0.93412891  0.99131592  0.26544660    -0.12900
H265        H  0.89851441  0.99027448  0.19009803     0.13300
H266        H  0.05978362  0.00417385  0.18966662     0.13300
H267        H  0.06013047  0.00132930  0.28571904     0.13300
H268        H  0.89876581  0.98814532  0.28612511     0.13300
C269        C  0.52415317  0.26312740  0.48713001    -0.15900
C270        C  0.49682730  0.22474122  0.51634989    -0.31100
H271        H  0.55184366  0.24431096  0.46014867     0.13100
H272        H  0.47050042  0.24331461  0.54480173     0.13700
C273        C  0.50546858  0.74089491  0.49243644    -0.15900
C274        C  0.53920057  0.77543482  0.51628107    -0.31100
H275        H  0.47590788  0.76332368  0.46903292     0.13100
H276        H  0.56766763  0.75360586  0.54141153     0.13700
C277        C  0.52172331  0.22526017  0.00358950    -0.15900
C278        C  0.49009535  0.26482021  0.02742181    -0.31100
H279        H  0.54884283  0.24250119  0.97569436     0.13100
H280        H  0.46171813  0.24718934  0.05373524     0.13700
C281        C  0.49141329  0.74170346  0.99156428    -0.15900
C282        C  0.52168603  0.77497496  0.02133747    -0.31100
H283        H  0.46540744  0.76518636  0.96466461     0.13100
H284        H  0.54624007  0.75187156  0.04984126     0.13700
C285        C  0.45267942  0.49345095  0.77463681    -0.12900
C286        C  0.49671652  0.49395711  0.80451645     0.09300
C287        C  0.54386752  0.49552737  0.78020150    -0.12900
C288        C  0.54695059  0.49756457  0.72614076    -0.12900
C289        C  0.50299260  0.49588461  0.69623041     0.09300
C290        C  0.45587013  0.49324619  0.72056499    -0.12900
H291        H  0.41607823  0.49238515  0.79316748     0.13300
H292        H  0.57808807  0.49646796  0.80306833     0.13300
H293        H  0.58353661  0.49943625  0.70765529     0.13300
H294        H  0.42165078  0.49220455  0.69770746     0.13300
C295        C  0.54297038  0.50863333  0.22014134    -0.12900
C296        C  0.49563996  0.51154653  0.19607136     0.09300
C297        C  0.45163636  0.51431984  0.22594074    -0.12900
C298        C  0.45501610  0.51502228  0.27983851    -0.12900
C299        C  0.50237559  0.51115714  0.30397801     0.09300
C300        C  0.54632464  0.50766043  0.27400799    -0.12900
H301        H  0.57721420  0.50593864  0.19727580     0.13300
H302        H  0.41489580  0.51659260  0.20757965     0.13300
H303        H  0.42074291  0.51726092  0.30266728     0.13300
H304        H  0.58311387  0.50473885  0.29223738     0.13300
C305        C  0.01373352  0.25715562  0.50891614    -0.15900
C306        C  0.98265056  0.22418008  0.47987016    -0.31100
H307        H  0.03973056  0.23362673  0.53579923     0.13100
H308        H  0.95813602  0.24736015  0.45136651     0.13700
C309        C  0.00735018  0.73555746  0.47601393    -0.15900
C310        C  0.97322687  0.77339838  0.49854828    -0.31100
H311        H  0.03585491  0.75482811  0.45074984     0.13100
H312        H  0.94588718  0.75451791  0.52539248     0.13700
C313        C  0.78563708  0.54371112  0.53275037    -0.12900
C314        C  0.81346234  0.49933043  0.50480105     0.09300
C315        C  0.78731435  0.45499884  0.47749499    -0.12900
C316        C  0.73469856  0.45563035  0.47737118    -0.12900
C317        C  0.70683600  0.50045109  0.50471842     0.09300
C318        C  0.73290923  0.54415820  0.53282554    -0.12900
H319        H  0.80457595  0.57842091  0.55430132     0.13300
H320        H  0.80749230  0.41996411  0.45575192     0.13300
H321        H  0.71583496  0.42103429  0.45560545     0.13300
H322        H  0.71256865  0.57929274  0.55430254     0.13300
C323        C  0.23559006  0.44870381  0.53167469    -0.12900
C324        C  0.20713556  0.49347448  0.50338413     0.09300
C325        C  0.23249006  0.53876502  0.47503030    -0.12900
C326        C  0.28498158  0.53940344  0.47489115    -0.12900
C327        C  0.31356050  0.49463667  0.50295876     0.09300
C328        C  0.28829351  0.44917912  0.53135097    -0.12900
H329        H  0.21716578  0.41308802  0.55379953     0.13300
H330        H  0.21175532  0.57402421  0.45293105     0.13300
H331        H  0.30316006  0.57508666  0.45261615     0.13300
H332        H  0.30920955  0.41400594  0.55336472     0.13300
C333        C  0.96110416  0.22632562  0.98558822    -0.15900
C334        C  0.99510605  0.26077960  0.00900800    -0.31100
H335        H  0.93247489  0.24809119  0.96061279     0.13100
H336        H  0.02470410  0.23835220  0.03236496     0.13700
C337        C  0.97620525  0.73812100  0.01360305    -0.15900
C338        C  0.00491226  0.77698947  0.98643620    -0.31100
H339        H  0.94707080  0.75655611  0.03914945     0.13100
H340        H  0.03283347  0.75888434  0.95938922     0.13700
C341        C  0.76675150  0.53251319  0.03372948    -0.12900
C342        C  0.79472017  0.49676619  0.99836459     0.09300
C343        C  0.76879670  0.46073057  0.96298520    -0.12900
C344        C  0.71609532  0.46029062  0.96320409    -0.12900
C345        C  0.68823996  0.49614504  0.99860053     0.09300
C346        C  0.71421375  0.53230479  0.03376720    -0.12900
H347        H  0.78543894  0.56073513  0.06156185     0.13300
H348        H  0.78921223  0.43268866  0.93521037     0.13300
H349        H  0.69717477  0.43214375  0.93548963     0.13300
H350        H  0.69393251  0.56033464  0.06165989     0.13300
C351        C  0.21621435  0.46133066  0.02658330    -0.12900
C352        C  0.18776038  0.50395728  0.99612790     0.09300
C353        C  0.21317183  0.54716994  0.96538719    -0.12900
C354        C  0.26587667  0.54792935  0.96544133    -0.12900
C355        C  0.29423379  0.50569505  0.99643722     0.09300
C356        C  0.26872009  0.46228553  0.02683497    -0.12900
H357        H  0.19792025  0.42739585  0.05070610     0.13300
H358        H  0.19235065  0.58054326  0.94138665     0.13300
H359        H  0.28437437  0.58189273  0.94154041     0.13300
H360        H  0.28932802  0.42889228  0.05101439     0.13300
C361        C  0.04974724  0.49873159  0.72695711    -0.12900
C362        C  0.00599578  0.50538797  0.69667271     0.09300
C363        C  0.95877440  0.51182837  0.72064213    -0.12900
C364        C  0.95519938  0.51060867  0.77462128    -0.12900
C365        C  0.99894627  0.50503270  0.80480117     0.09300
C366        C  0.04627452  0.49966325  0.78099234    -0.12900
H367        H  0.08641483  0.49367715  0.70880471     0.13300
H368        H  0.92467724  0.51644459  0.69758093     0.13300
H369        H  0.91851067  0.51484784  0.79285059     0.13300
H370        H  0.08026045  0.49508144  0.80423813     0.13300
C371        C  0.95575871  0.49467271  0.22683853    -0.12900
C372        C  0.99978690  0.49103664  0.19696717     0.09300
C373        C  0.04701304  0.48563322  0.22129524    -0.12900
C374        C  0.05018096  0.48504556  0.27526632    -0.12900
C375        C  0.00608115  0.48807083  0.30500212     0.09300
C376        C  0.95888451  0.49233442  0.28073685    -0.12900
H377        H  0.91904822  0.49858624  0.20850184     0.13300
H378        H  0.08134972  0.48307689  0.19858393     0.13300
H379        H  0.08682606  0.48175987  0.29379267     0.13300
H380        H  0.92458965  0.49522822  0.30350554     0.13300
loop_ 
_geom_bond_atom_site_label_1 
_geom_bond_atom_site_label_2 
_geom_bond_distance 
_geom_bond_site_symmetry_2 
_ccdc_geom_bond_type 
Zn1           O5   1.945   1_455  S
Zn1           O6   2.008       .  S
Zn1          O10   1.970       .  S
Zn1          O17   2.005       .  S
Zn2           O5   1.955   1_556  S
Zn2           O7   2.021       .  S
Zn2           O9   2.035       .  S
Zn2          O13   1.993       .  S
Zn3           O5   1.947       .  S
Zn3           O8   1.980       .  S
Zn3          O11   2.010       .  S
Zn3          O14   2.015       .  S
Zn4           O5   1.955   1_456  S
Zn4          O12   2.032       .  S
Zn4          O15   1.985       .  S
Zn4          O16   2.022       .  S
O6           C18   1.270   1_455  A
O7           C19   1.273       .  A
O8           C20   1.271       .  A
O9           C18   1.275   1_556  A
O10          C20   1.269   1_455  A
O11          C19   1.273   1_554  A
O12          C21   1.275   1_456  A
O13          C22   1.273       .  A
O14          C21   1.271       .  A
O15          C22   1.272   1_455  A
O16          C23   1.273       .  A
O17          C23   1.272   1_554  A
C18         C334   1.478       .  S
C19         C342   1.483       .  S
C20         C372   1.452       .  S
C21         C337   1.479       .  S
C22         C365   1.450       .  S
C23         C352   1.483       .  S
Zn24         O28   1.947   1_655  S
Zn24         O29   1.971       .  S
Zn24         O33   2.010       .  S
Zn24         O40   2.010       .  S
Zn25         O28   1.949       .  S
Zn25         O30   2.021       .  S
Zn25         O32   1.980       .  S
Zn25         O36   2.006       .  S
Zn26         O28   1.956   1_655  S
Zn26         O31   2.026       .  S
Zn26         O34   2.038       .  S
Zn26         O37   1.987       .  S
Zn27         O28   1.961       .  S
Zn27         O35   1.991       .  S
Zn27         O38   2.022       .  S
Zn27         O39   2.031       .  S
O29          C41   1.270   1_655  A
O30          C42   1.272       .  A
O31          C43   1.273       .  A
O32          C41   1.271       .  A
O33          C43   1.272       .  A
O34          C42   1.276   1_655  A
O35          C44   1.273       .  A
O36          C45   1.272       .  A
O37          C44   1.273   1_655  A
O38          C45   1.273       .  A
O39          C46   1.273       .  A
O40          C46   1.272   1_655  A
C41         C375   1.449       .  S
C42         C309   1.483       .  S
C43         C314   1.485       .  S
C44         C362   1.455       .  S
C45         C324   1.482       .  S
C46         C305   1.478       .  S
Zn47         O51   1.957   1_556  S
Zn47         O52   2.034       .  S
Zn47         O56   1.993       .  S
Zn47         O63   2.036       .  S
Zn48         O51   1.948       .  S
Zn48         O53   2.005       .  S
Zn48         O55   2.002       .  S
Zn48         O59   1.975       .  S
Zn49         O51   1.959   1_556  S
Zn49         O54   1.993       .  S
Zn49         O57   2.041       .  S
Zn49         O60   2.029       .  S
Zn50         O51   1.946       .  S
Zn50         O58   2.000       .  S
Zn50         O61   1.965       .  S
Zn50         O62   2.012       .  S
O52          C64   1.274       .  A
O53          C65   1.270       .  A
O54          C66   1.273       .  A
O55          C64   1.271   1_554  A
O56          C66   1.273       .  A
O57          C65   1.277   1_556  A
O58          C67   1.270   1_554  A
O59          C68   1.270       .  A
O60          C67   1.273       .  A
O61          C68   1.269       .  A
O62          C69   1.272   1_554  A
O63          C69   1.274       .  A
C64         C355   1.484       .  S
C65         C278   1.479       .  S
C66         C286   1.454       .  S
C67         C345   1.482       .  S
C68         C296   1.448       .  S
C69         C281   1.480       .  S
Zn70         O74   1.956       .  S
Zn70         O75   2.021       .  S
Zn70         O79   1.986       .  S
Zn70         O86   2.026       .  S
Zn71         O74   1.947       .  S
Zn71         O76   2.013       .  S
Zn71         O78   2.007       .  S
Zn71         O82   1.968       .  S
Zn72         O74   1.956       .  S
Zn72         O77   1.998       .  S
Zn72         O80   2.038       .  S
Zn72         O83   2.026       .  S
Zn73         O74   1.948       .  S
Zn73         O81   2.012       .  S
Zn73         O84   1.980       .  S
Zn73         O85   2.015       .  S
O75          C87   1.272       .  A
O76          C88   1.271       .  A
O77          C89   1.274       .  A
O78          C87   1.272       .  A
O79          C89   1.272       .  A
O80          C88   1.276       .  A
O81          C90   1.273       .  A
O82          C91   1.269       .  A
O83          C90   1.273       .  A
O84          C91   1.271       .  A
O85          C92   1.271       .  A
O86          C92   1.274       .  A
C87         C327   1.482       .  S
C88         C273   1.480       .  S
C89         C289   1.454       .  S
C90         C317   1.484       .  S
C91         C299   1.451       .  S
C92         C269   1.478       .  S
N93          C98   1.361       .  A
N93          C97   1.356       .  A
N93         H125   1.037       .  S
N94         C101   1.353       .  A
N94         C102   1.358       .  A
N95         C100   1.353       .  A
N95          C99   1.360       .  A
N95         H126   1.036       .  S
N96         C103   1.358       .  A
N96         C104   1.355       .  A
C97         C105   1.389   1_655  A
C97         C113   1.426   1_554  A
C98         C114   1.423       .  A
C98         C106   1.385   1_655  A
C99         C107   1.386       .  A
C99         C116   1.422       .  A
C100        C115   1.422       .  A
C100        C108   1.389       .  A
C101        C113   1.421       .  A
C101        C109   1.389       .  A
C102        C116   1.420   1_565  A
C102        C110   1.385       .  A
C103        C111   1.385       .  A
C103        C114   1.421   1_545  A
C104        C112   1.388       .  A
C104        C115   1.424   1_554  A
C105        C106   1.377       .  A
C105        H117   1.082       .  S
C106        H118   1.082       .  S
C107        C108   1.374       .  A
C107        H119   1.081       .  S
C108        H120   1.082       .  S
C109        C110   1.371       .  A
C109        H121   1.082       .  S
C110        H122   1.082       .  S
C111        C112   1.375       .  A
C111        H123   1.082       .  S
C112        H124   1.082       .  S
C113        C338   1.493   1_655  S
C114        C260   1.508       .  S
C115        C333   1.491       .  S
C116        C250   1.504       .  S
N127        C132   1.354       .  A
N127        C131   1.359       .  A
N127        H159   1.036       .  S
N128        C135   1.357       .  A
N128        C136   1.353       .  A
N129        C134   1.361       .  A
N129        C133   1.355       .  A
N129        H160   1.035       .  S
N130        C137   1.356       .  A
N130        C138   1.359       .  A
C131        C139   1.385       .  A
C131        C147   1.419   1_565  A
C132        C148   1.422       .  A
C132        C140   1.390       .  A
C133        C141   1.389   1_655  A
C133        C150   1.424       .  A
C134        C149   1.425   1_545  A
C134        C142   1.387       .  A
C135        C147   1.416       .  A
C135        C143   1.383       .  A
C136        C150   1.423       .  A
C136        C144   1.390       .  A
C137        C145   1.388       .  A
C137        C148   1.426       .  A
C138        C146   1.385       .  A
C138        C149   1.424       .  A
C139        C140   1.374       .  A
C139        H151   1.082       .  S
C140        H152   1.082   1_655  S
C141        C142   1.376   1_455  A
C141        H153   1.082       .  S
C142        H154   1.082   1_655  S
C143        C144   1.372       .  A
C143        H155   1.082       .  S
C144        H156   1.082       .  S
C145        C146   1.376       .  A
C145        H157   1.082       .  S
C146        H158   1.082       .  S
C147        C253   1.501       .  S
C148        C310   1.494       .  S
C149        C263   1.510       .  S
C150        C306   1.492       .  S
N161        C166   1.353       .  A
N161        C165   1.359       .  A
N161        H193   1.040       .  S
N162        C169   1.357       .  A
N162        C170   1.351       .  A
N163        C168   1.361       .  A
N163        C167   1.356       .  A
N163        H194   1.039       .  S
N164        C171   1.355       .  A
N164        C172   1.359       .  A
C165        C173   1.384       .  A
C165        C181   1.419       .  A
C166        C182   1.423   1_556  A
C166        C174   1.390       .  A
C167        C175   1.389       .  A
C167        C184   1.426       .  A
C168        C183   1.424       .  A
C168        C176   1.386       .  A
C169        C181   1.415   1_545  A
C169        C177   1.384       .  A
C170        C184   1.418   1_556  A
C170        C178   1.390       .  A
C171        C179   1.389       .  A
C171        C182   1.423       .  A
C172        C180   1.385       .  A
C172        C183   1.422   1_565  A
C173        C174   1.376       .  A
C173        H185   1.082       .  S
C174        H186   1.082       .  S
C175        C176   1.378       .  A
C175        H187   1.082       .  S
C176        H188   1.082       .  S
C177        C178   1.371       .  A
C177        H189   1.082       .  S
C178        H190   1.082       .  S
C179        C180   1.374       .  A
C179        H191   1.082       .  S
C180        H192   1.082       .  S
C181        C230   1.501       .  S
C182        C282   1.494       .  S
C183        C240   1.509       .  S
C184        C277   1.491       .  S
N195        C200   1.355       .  A
N195        C199   1.361       .  A
N195        H227   1.038       .  S
N196        C203   1.358       .  A
N196        C204   1.355       .  A
N197        C202   1.361       .  A
N197        C201   1.354       .  A
N197        H228   1.036       .  S
N198        C205   1.352       .  A
N198        C206   1.357       .  A
C199        C207   1.385       .  A
C199        C215   1.423       .  A
C200        C216   1.425       .  A
C200        C208   1.389       .  A
C201        C209   1.389       .  A
C201        C218   1.423       .  A
C202        C217   1.422       .  A
C202        C210   1.386       .  A
C203        C215   1.421   1_565  A
C203        C211   1.385       .  A
C204        C218   1.425       .  A
C204        C212   1.388       .  A
C205        C213   1.389       .  A
C205        C216   1.420       .  A
C206        C214   1.385       .  A
C206        C217   1.418   1_545  A
C207        C208   1.377       .  A
C207        H219   1.082       .  S
C208        H220   1.082       .  S
C209        C210   1.374       .  A
C209        H221   1.082       .  S
C210        H222   1.082       .  S
C211        C212   1.374       .  A
C211        H223   1.082       .  S
C212        H224   1.082       .  S
C213        C214   1.372       .  A
C213        H225   1.082       .  S
C214        H226   1.082       .  S
C215        C243   1.509       .  S
C216        C270   1.492       .  S
C217        C233   1.504       .  S
C218        C274   1.493       .  S
C229        C230   1.406   1_545  A
C229        C234   1.406       .  A
C229        H235   1.083       .  S
C230        C231   1.405       .  A
C231        C232   1.406       .  A
C231        H236   1.083       .  S
C232        C233   1.407       .  A
C232        H237   1.083       .  S
C233        C234   1.407   1_565  A
C234        H238   1.083       .  S
C239        C240   1.408       .  A
C239        C244   1.409       .  A
C239        H245   1.083       .  S
C240        C241   1.408       .  A
C241        C242   1.409       .  A
C241        H246   1.083       .  S
C242        C243   1.408       .  A
C242        H247   1.083       .  S
C243        C244   1.407       .  A
C244        H248   1.083       .  S
C249        C250   1.407   1_565  A
C249        C254   1.406       .  A
C249        H255   1.083       .  S
C250        C251   1.407   1_655  A
C251        C252   1.405       .  A
C251        H256   1.083       .  S
C252        C253   1.405   1_455  A
C252        H257   1.083       .  S
C253        C254   1.406   1_545  A
C254        H258   1.083       .  S
C259        C260   1.407       .  A
C259        C264   1.409       .  A
C259        H265   1.083       .  S
C260        C261   1.407   1_665  A
C261        C262   1.409   1_545  A
C261        H266   1.083       .  S
C262        C263   1.408   1_455  A
C262        H267   1.083   1_565  S
C263        C264   1.407       .  A
C264        H268   1.083       .  S
C269        C270   1.344       .  D
C269        H271   1.087       .  S
C270        H272   1.087       .  S
C273        C274   1.344       .  D
C273        H275   1.087       .  S
C274        H276   1.087       .  S
C277        C278   1.341       .  D
C277        H279   1.087   1_554  S
C278        H280   1.087       .  S
C281        C282   1.348   1_556  D
C281        H283   1.087       .  S
C282        H284   1.087       .  S
C285        C286   1.400       .  A
C285        C290   1.392       .  A
C285        H291   1.083       .  S
C286        C287   1.401       .  A
C287        C288   1.392       .  A
C287        H292   1.084       .  S
C288        C289   1.400       .  A
C288        H293   1.083       .  S
C289        C290   1.402       .  A
C290        H294   1.083       .  S
C295        C296   1.400       .  A
C295        C300   1.387       .  A
C295        H301   1.084       .  S
C296        C297   1.399       .  A
C297        C298   1.388       .  A
C297        H302   1.084       .  S
C298        C299   1.402       .  A
C298        H303   1.083       .  S
C299        C300   1.400       .  A
C300        H304   1.083       .  S
C305        C306   1.347   1_455  D
C305        H307   1.087       .  S
C306        H308   1.087       .  S
C309        C310   1.345   1_455  D
C309        H311   1.087       .  S
C310        H312   1.087       .  S
C313        C314   1.407       .  A
C313        C318   1.401       .  A
C313        H319   1.083       .  S
C314        C315   1.406       .  A
C315        C316   1.398       .  A
C315        H320   1.083       .  S
C316        C317   1.406       .  A
C316        H321   1.083       .  S
C317        C318   1.406       .  A
C318        H322   1.083       .  S
C323        C324   1.406       .  A
C323        C328   1.401       .  A
C323        H329   1.083       .  S
C324        C325   1.405       .  A
C325        C326   1.395       .  A
C325        H330   1.083       .  S
C326        C327   1.405       .  A
C326        H331   1.083       .  S
C327        C328   1.407       .  A
C328        H332   1.083       .  S
C333        C334   1.343   1_556  D
C333        H335   1.087       .  S
C334        H336   1.087   1_655  S
C337        C338   1.344   1_654  D
C337        H339   1.087       .  S
C338        H340   1.087       .  S
C341        C342   1.405   1_554  A
C341        C346   1.396       .  A
C341        H347   1.083       .  S
C342        C343   1.407       .  A
C343        C344   1.401       .  A
C343        H348   1.083       .  S
C344        C345   1.406       .  A
C344        H349   1.083       .  S
C345        C346   1.406   1_556  A
C346        H350   1.083       .  S
C351        C352   1.405   1_554  A
C351        C356   1.396       .  A
C351        H357   1.083       .  S
C352        C353   1.407       .  A
C353        C354   1.401       .  A
C353        H358   1.083       .  S
C354        C355   1.406       .  A
C354        H359   1.083       .  S
C355        C356   1.406   1_556  A
C356        H360   1.083       .  S
C361        C362   1.401       .  A
C361        C366   1.392       .  A
C361        H367   1.083       .  S
C362        C363   1.402   1_455  A
C363        C364   1.390       .  A
C363        H368   1.083       .  S
C364        C365   1.398       .  A
C364        H369   1.083       .  S
C365        C366   1.401   1_655  A
C366        H370   1.084       .  S
C371        C372   1.400       .  A
C371        C376   1.387       .  A
C371        H377   1.083       .  S
C372        C373   1.402   1_655  A
C373        C374   1.389       .  A
C373        H378   1.083       .  S
C374        C375   1.399       .  A
C374        H379   1.083       .  S
C375        C376   1.400   1_455  A
C376        H380   1.084       .  S
