geometry optimzed in LAMMPS
_audit_creation_date              2020-11-30 
_audit_creation_method            'lammps2cif' 
_symmetry_space_group_name_H-M    'P1' 
_symmetry_Int_Tables_number       1 
_symmetry_cell_setting            triclinic 
loop_ 
_symmetry_equiv_pos_as_xyz 
  x,y,z 
_cell_length_a                    37.03850698281368 
_cell_length_b                    36.99011568275663 
_cell_length_c                    37.63433347938255 
_cell_angle_alpha                 87.88789499782956 
_cell_angle_beta                  89.61151451173978 
_cell_angle_gamma                 89.28237155530684 
loop_ 
_atom_site_label 
_atom_site_type_symbol 
_atom_site_fract_x 
_atom_site_fract_y 
_atom_site_fract_z 
_atom_site_charge 
O1          O  0.03391759  0.06558430  0.41671559    -0.89850
C2          C  0.47374937  0.05957034  0.10241205     1.10190
O3          O  0.98829137  0.02001013  0.46104088    -1.37660
O4          O  0.05099124  0.06417450  0.07963367    -0.91330
O5          O  0.02014784  0.51463117  0.38873366    -0.92000
O6          O  0.05081546  0.45506829  0.44416504    -0.80820
O7          O  0.04116943  0.06977781  0.49424784    -1.02910
C8          C  0.05661809  0.44138172  0.04190378     1.20230
O9          O  0.47822237  0.46206268  0.00197968    -1.37800
Mn10       Mn  0.45358671  0.01049475  0.00442484     1.82050
O11         O  0.06221370  0.46185173  0.01603092    -0.79900
O12         O  0.05919778  0.00591830  0.08569668    -0.89290
C13         C  0.42920792  0.98210307  0.07613768     1.11320
C14         C  0.06082777  0.03654096  0.09860431     1.06040
O15         O  0.40876513  0.99842134  0.47534089    -0.80830
O16         O  0.00279243  0.01705182  0.03250360    -1.34530
O17         O  0.43676997  0.46218229  0.44068833    -1.00050
C18         C  0.48621463  0.36997850  0.05392794     1.04760
Mn19       Mn  0.00793729  0.98724001  0.08345504     1.48570
O20         O  0.48289239  0.38097479  0.51872095    -0.89240
Mn21       Mn  0.47431288  0.49108186  0.41582116     1.49560
O22         O  0.45859222  0.08381685  0.42800413    -0.93120
C23         C  0.07050196  0.05612554  0.48866454     1.17950
C24         C  0.43573698  0.06825755  0.40926731     1.10010
Mn25       Mn  0.02722524  0.48973810  0.48812926     1.80970
O26         O  0.45891543  0.46623905  0.08078148    -0.98270
Mn27       Mn  0.00223008  0.07485383  0.45867355     1.49260
C28         C  0.03964112  0.04257920  0.39352835     1.06530
Mn29       Mn  0.47554971  0.43165980  0.04516704     1.49930
C30         C  0.40134483  0.40943155  0.01506806     1.09430
O31         O  0.49806062  0.44461898  0.43437767    -1.04070
O32         O  0.98853796  0.03105686  0.11561826    -0.93740
C33         C  0.02871935  0.43576829  0.42761795     1.20720
O34         O  0.02700701  0.44320481  0.05871025    -1.04460
O35         O  0.96828769  0.06211267  0.07020798    -0.91860
O36         O  0.41901660  0.41822471  0.04188950    -0.91470
O37         O  0.43885095  0.03524554  0.39990989    -0.91490
Mn38       Mn  0.01128997  0.07113293  0.03737796     1.47860
O39         O  0.42315035  0.00005446  0.04795425    -0.79970
C40         C  0.40811823  0.47634421  0.45072246     1.13770
O41         O  0.07252673  0.02343294  0.48040374    -0.78700
O42         O  0.42712820  0.06108054  0.50723976    -0.78310
Mn43       Mn  0.46388181  0.42282676  0.47051770     1.51060
O44         O  0.47945981  0.39163810  0.07426493    -0.90670
O45         O  0.97682501  0.08660540  0.50120051    -0.98190
O46         O  0.41547534  0.40989995  0.48536670    -0.93200
C47         C  0.44461183  0.08965679  0.50647475     1.11560
O48         O  0.03860204  0.18771232  0.32022944    -0.89850
C49         C  0.45650513  0.19966160  0.14365819     1.10190
O50         O  0.48547195  0.23675250  0.28305697    -1.37660
O51         O  0.03323354  0.18722700  0.16032450    -0.91330
O52         O  0.02831879  0.24015409  0.34835983    -0.92000
O53         O  0.04750757  0.30025247  0.29704124    -0.80820
O54         O  0.03441711  0.18124194  0.24246860    -1.02910
C55         C  0.05274935  0.31374627  0.19748099     1.20230
O56         O  0.47626592  0.30038885  0.24375908    -1.37800
Mn57       Mn  0.44876480  0.25290764  0.24233976     1.82050
O58         O  0.05994621  0.28923763  0.21977675    -0.79900
O59         O  0.04900876  0.24436423  0.15815752    -0.89290
C60         C  0.42251029  0.28153012  0.17175523     1.11320
C61         C  0.05114137  0.21340718  0.14604139     1.06040
O62         O  0.40419662  0.26145131  0.27592211    -0.80830
O63         O  0.99454863  0.24039443  0.21142671    -1.34530
O64         O  0.43608816  0.28848948  0.31286305    -1.00050
C65         C  0.98234848  0.38627508  0.22153348     1.04760
Mn66       Mn  0.99986092  0.26809399  0.16061769     1.48570
O67         O  0.46109433  0.38476663  0.24884496    -0.89240
Mn68       Mn  0.47785429  0.26266944  0.33167806     1.49560
O69         O  0.46182157  0.17062467  0.32143388    -0.93120
C70         C  0.06434864  0.19592677  0.24292045     1.17950
C71         C  0.44412845  0.18473442  0.34598427     1.10010
Mn72       Mn  0.02323944  0.26596784  0.25312534     1.80970
O73         O  0.45304138  0.29389413  0.16484511    -0.98270
Mn74       Mn  0.99887590  0.17988313  0.28328466     1.49260
C75         C  0.04747580  0.21197520  0.34140582     1.06530
Mn76       Mn  0.47664682  0.32927566  0.19494125     1.49930
C77         C  0.39954665  0.34847098  0.23064846     1.09430
O78         O  0.49511262  0.31150013  0.31274493    -1.04070
O79         O  0.97547457  0.22603189  0.13192147    -0.93740
C80         C  0.02629732  0.31987071  0.31605326     1.20720
O81         O  0.02399025  0.31188062  0.18008189    -1.04460
O82         O  0.95136281  0.19502469  0.17608937    -0.91860
O83         O  0.42347270  0.34804120  0.20658753    -0.91470
O84         O  0.44855820  0.21745806  0.35495250    -0.91490
Mn85       Mn  0.99633771  0.18413587  0.20602204     1.47860
O86         O  0.41589051  0.26761627  0.20181762    -0.79970
C87         C  0.40804144  0.27318272  0.30637190     1.13770
O88         O  0.06658498  0.22752943  0.25514658    -0.78700
O89         O  0.42010892  0.20798047  0.24070226    -0.78310
Mn90       Mn  0.45345443  0.33203775  0.28376093     1.51060
O91         O  0.50570761  0.36307468  0.22429891    -0.90670
O92         O  0.46261894  0.16938439  0.24652167    -0.98190
O93         O  0.40435904  0.33529422  0.26125316    -0.93200
C94         C  0.42947229  0.17633449  0.24668880     1.11560
O95         O  0.29176942  0.05450746  0.34610408    -0.89850
C96         C  0.29897612  0.99108890  0.16026962     1.10190
O97         O  0.24140899  0.01242929  0.30142793    -1.37660
O98         O  0.31231774  0.06286498  0.18644849    -0.91330
O99         O  0.23301423  0.05631496  0.36248197    -0.92000
O100        O  0.19127364  0.08324386  0.30728181    -0.80820
O101        O  0.30704629  0.05135579  0.26898610    -1.02910
C102        C  0.18435753  0.09517958  0.21332846     1.20230
O103        O  0.18200568  0.01500020  0.25826920    -1.37800
Mn104      Mn  0.22479349  0.97943055  0.26023549     1.82060
O105        O  0.20812412  0.09836434  0.23601206    -0.79900
O106        O  0.25707383  0.08457079  0.17652770    -0.89290
C107        C  0.20180085  0.46348986  0.18739742     1.11320
C108        C  0.29040460  0.08505161  0.17042320     1.06040
O109        O  0.20557380  0.43437291  0.29394994    -0.80830
O110        O  0.24877565  0.02423932  0.22930564    -1.34530
O111        O  0.18082458  0.46870845  0.32994262    -1.00050
C112        C  0.09591926  0.03868929  0.24332036     1.04760
Mn113      Mn  0.22820180  0.03819597  0.17779716     1.48570
O114        O  0.09577298  0.01700659  0.27031171    -0.89240
Mn115      Mn  0.20907807  0.00899277  0.34778128     1.49560
O116        O  0.29305514  0.97021423  0.34116749    -0.93120
C117        C  0.30159723  0.08357331  0.26979101     1.17950
C118        C  0.28044615  0.96920692  0.37221071     1.10010
Mn119      Mn  0.22386995  0.05586863  0.26880721     1.80970
O120        O  0.19568052  0.99615012  0.18128289    -0.98270
Mn121      Mn  0.29769317  0.01468276  0.30728515     1.49260
C122        C  0.26448157  0.06988472  0.36045365     1.06530
Mn123      Mn  0.15810423  0.02235879  0.20776017     1.49930
C124        C  0.12389391  0.44702447  0.23514286     1.09430
O125        O  0.16785960  0.03296909  0.32325164    -1.04070
O126        O  0.27231698  0.01104338  0.14945524    -0.93740
C127        C  0.16523046  0.06555618  0.32137005     1.20720
O128        O  0.18468298  0.06660507  0.19629025    -1.04460
O129        O  0.30138661  0.98172739  0.19228534    -0.91860
O130        O  0.12884619  0.47323772  0.21273098    -0.91470
O131        O  0.24876775  0.48090688  0.37926624    -0.91490
Mn132      Mn  0.30541049  0.02083952  0.22831723     1.47860
O133        O  0.20952302  0.45121548  0.21797241    -0.79970
C134        C  0.19140324  0.43819239  0.32428423     1.13770
O135        O  0.26891831  0.09354786  0.27510459    -0.78700
O136        O  0.26552064  0.44418539  0.26196881    -0.78310
Mn137      Mn  0.14434751  0.49453745  0.29731726     1.51060
O138        O  0.12469744  0.05319736  0.23612452    -0.90670
O139        O  0.30558226  0.98397106  0.26697974    -0.98190
O140        O  0.13120546  0.44919327  0.26826448    -0.93200
C141        C  0.29749723  0.95236514  0.26365471     1.11560
O142        O  0.33660423  0.21399837  0.45467467    -0.89850
C143        C  0.14859036  0.18025197  0.51198674     1.10190
O144        O  0.28378086  0.25291324  0.50468772    -1.37660
O145        O  0.18378734  0.18685227  0.44368232    -0.91330
O146        O  0.34338621  0.27279041  0.46065044    -0.92000
O147        O  0.28522271  0.31589007  0.43751324    -0.80820
O148        O  0.26128173  0.19848938  0.46087384    -1.02910
C149        C  0.18830906  0.32116290  0.43752360     1.20230
O150        O  0.23156606  0.30762509  0.01158680    -1.37800
Mn151      Mn  0.23877887  0.25916349  0.04039971     1.82050
O152        O  0.21409834  0.30053236  0.43011888    -0.79900
O153        O  0.16743922  0.24423388  0.43131313    -0.89290
C154        C  0.16135368  0.26039210  0.05697000     1.11320
C155        C  0.16985910  0.21157242  0.42296864     1.06040
O156        O  0.26896560  0.27681802  0.08459240    -0.80830
O157        O  0.21273507  0.24213058  0.49354729    -1.34530
O158        O  0.30218966  0.30999860  0.05121190    -1.00050
C159        C  0.20317804  0.39698255  0.49206332     1.04760
Mn160      Mn  0.15982643  0.26058418  0.48144902     1.48570
O161        O  0.23633712  0.38548974  0.49411298    -0.89240
Mn162      Mn  0.32599564  0.28772156  0.00989237     1.49560
O163        O  0.33254939  0.19973272  0.53717806    -0.93120
C164        C  0.26236089  0.20592294  0.42961879     1.17950
C165        C  0.36265222  0.21466596  0.03728644     1.10010
Mn166      Mn  0.24893935  0.27631964  0.46474988     1.80970
O167        O  0.15731777  0.27761621  0.02874410    -0.98270
Mn168      Mn  0.29846242  0.19935235  0.49507690     1.49260
C169        C  0.34502908  0.24522079  0.44210503     1.06530
Mn170      Mn  0.17710028  0.32528102  0.01779664     1.49930
C171        C  0.20923823  0.35786228  0.08340614     1.09430
O172        O  0.29328264  0.32373460  0.48973362    -1.04070
O173        O  0.13794256  0.20934755  0.49584306    -0.93740
C174        C  0.29871469  0.33517221  0.46054097     1.20720
O175        O  0.17039799  0.31371138  0.46571083    -1.04460
O176        O  0.17971108  0.17715284  0.52470697    -0.91860
O177        O  0.18460407  0.33739268  0.07177886    -0.91470
O178        O  0.36537509  0.24892015  0.03149207    -0.91490
Mn179      Mn  0.22022395  0.18664131  0.48889729     1.47860
O180        O  0.19200378  0.25960606  0.07131409    -0.79970
C181        C  0.29768151  0.29452708  0.07983364     1.13770
O182        O  0.26117776  0.23946210  0.42107781    -0.78700
O183        O  0.24546395  0.21199865  0.06946702    -0.78310
Mn184      Mn  0.26749619  0.34559968  0.02604295     1.51060
O185        O  0.18377480  0.37812637  0.00901509    -0.90670
O186        O  0.25968023  0.18006452  0.52594254    -0.98190
O187        O  0.24015713  0.36181527  0.06934586    -0.93200
C188        C  0.25851584  0.18354500  0.05832106     1.11560
C189        C  0.29613333  0.09786838  0.10585196    -0.15020
C190        C  0.30071677  0.11002528  0.14068879     0.07130
C191        C  0.29682750  0.14708966  0.14612281    -0.15020
C192        C  0.28465433  0.17064245  0.11870818    -0.15020
C193        C  0.27602440  0.15791729  0.08488825     0.07130
C194        C  0.28397430  0.12159895  0.07812475    -0.15020
H195        H  0.29790355  0.06920010  0.10104569     0.11120
H196        H  0.29915183  0.15718330  0.17267326     0.11120
H197        H  0.28005822  0.19872890  0.12473230     0.11120
H198        H  0.27843071  0.11104097  0.05229523     0.11120
C199        C  0.20942570  0.44647869  0.12599352    -0.15020
C200        C  0.19743599  0.43742057  0.16008429     0.07130
C201        C  0.18667251  0.40172199  0.16905540    -0.15020
C202        C  0.18743047  0.37529320  0.14353545    -0.15020
C203        C  0.20150167  0.38422645  0.11001274     0.07130
C204        C  0.21298050  0.41971809  0.10176636    -0.15020
H205        H  0.21881458  0.47344036  0.11896564     0.11120
H206        H  0.17853481  0.39415933  0.19596160     0.11120
H207        H  0.17951494  0.34784800  0.15054065     0.11120
H208        H  0.22579706  0.42663875  0.07649777     0.11120
C209        C  0.19586762  0.34437282  0.37335839    -0.15020
C210        C  0.18063709  0.35009281  0.40767955     0.07130
C211        C  0.16629716  0.38515319  0.41249652    -0.15020
C212        C  0.16871431  0.41300656  0.38531942    -0.15020
C213        C  0.18568346  0.40729091  0.35197074     0.07130
C214        C  0.19852809  0.37206008  0.34649225    -0.15020
H215        H  0.20746970  0.31824678  0.36742478     0.11120
H216        H  0.15493700  0.39212954  0.43762696     0.11120
H217        H  0.15822221  0.43964288  0.39099773     0.11120
H218        H  0.21168037  0.36596535  0.32159446     0.11120
C219        C  0.25084926  0.10878615  0.40920797    -0.15020
C220        C  0.26818512  0.10507657  0.37678712     0.07130
C221        C  0.28253875  0.13604250  0.35888035    -0.15020
C222        C  0.27923226  0.17053920  0.37388146    -0.15020
C223        C  0.26205780  0.17372652  0.40703641     0.07130
C224        C  0.24779096  0.14209873  0.42386935    -0.15020
H225        H  0.23913067  0.08562359  0.42331143     0.11120
H226        H  0.29533175  0.13365243  0.33318790     0.11120
H227        H  0.29049008  0.19404040  0.36015741     0.11120
H228        H  0.23475965  0.14245187  0.44965553     0.11120
C229        C  0.39979378  0.11315288  0.24968304    -0.15020
C230        C  0.39793704  0.15082567  0.25227488     0.07130
C231        C  0.36341794  0.16620210  0.26036213    -0.15020
C232        C  0.33233258  0.14517801  0.26601727    -0.15020
C233        C  0.33422852  0.10758402  0.26426757     0.07130
C234        C  0.36855997  0.09197578  0.25581961    -0.15020
H235        H  0.42520670  0.10008429  0.24328024     0.11120
H236        H  0.36015916  0.19515757  0.26256605     0.11120
H237        H  0.30685963  0.15845005  0.27181053     0.11120
H238        H  0.37137569  0.06296819  0.25368632     0.11120
C239        C  0.33615844  0.36357659  0.23833789    -0.15020
C240        C  0.37062438  0.37421887  0.22769514     0.07130
C241        C  0.38102476  0.41046124  0.22976083    -0.15020
C242        C  0.35784668  0.43565608  0.24357731    -0.15020
C243        C  0.32363290  0.42509930  0.25467079     0.07130
C244        C  0.31255665  0.38904989  0.25170611    -0.15020
H245        H  0.32863166  0.33534339  0.23872367     0.11120
H246        H  0.40834148  0.41897825  0.22444854     0.11120
H247        H  0.36672453  0.46329314  0.24567705     0.11120
H248        H  0.28585735  0.38050438  0.26010821     0.11120
C249        C  0.11552889  0.17560478  0.20091803    -0.15020
C250        C  0.09751079  0.17399879  0.23426260     0.07130
C251        C  0.11022029  0.14887594  0.25941823    -0.15020
C252        C  0.13796387  0.12476584  0.25087300    -0.15020
C253        C  0.15296301  0.12196179  0.21670973     0.07130
C254        C  0.14261088  0.14942019  0.19182750    -0.15020
H255        H  0.10913657  0.19759736  0.18253722     0.11120
H256        H  0.09875200  0.14805314  0.28598053     0.11120
H257        H  0.14753936  0.10716193  0.27124818     0.11120
H258        H  0.15633765  0.15148019  0.16639260     0.11120
C259        C  0.08691133  0.37230318  0.17600865    -0.15020
C260        C  0.07505894  0.34720876  0.20238935     0.07130
C261        C  0.08501116  0.35371220  0.23766787    -0.15020
C262        C  0.10052161  0.38553321  0.24755210    -0.15020
C263        C  0.10853804  0.41262877  0.22234664     0.07130
C264        C  0.10260635  0.40542277  0.18598415    -0.15020
H265        H  0.08278945  0.36716068  0.14827675     0.11120
H266        H  0.08050203  0.33412559  0.25857031     0.11120
H267        H  0.10609340  0.38881219  0.27541139     0.11120
H268        H  0.10979238  0.42532037  0.16540914     0.11120
C269        C  0.39225623  0.30582129  0.11574743    -0.15020
C270        C  0.39090885  0.28557192  0.14772603     0.07130
C271        C  0.35771413  0.26956669  0.15821557    -0.15020
C272        C  0.32683595  0.27356152  0.13721623    -0.15020
C273        C  0.32815788  0.29394473  0.10529343     0.07130
C274        C  0.36113360  0.31042785  0.09510782    -0.15020
H275        H  0.41728289  0.31782773  0.10661375     0.11120
H276        H  0.35551115  0.25345923  0.18273619     0.11120
H277        H  0.30223285  0.26014698  0.14561939     0.11120
H278        H  0.36325249  0.32609036  0.07044041     0.11120
C279        C  0.06657998  0.24005720  0.08785038    -0.15020
C280        C  0.07256411  0.21147017  0.11297052     0.07130
C281        C  0.10607539  0.19370092  0.11288650    -0.15020
C282        C  0.13538706  0.20967543  0.09478554    -0.15020
C283        C  0.13041177  0.24183812  0.07410396     0.07130
C284        C  0.09527453  0.25516780  0.06858373    -0.15020
H285        H  0.04057230  0.25380971  0.08666297     0.11120
H286        H  0.11022351  0.16949350  0.12916438     0.11120
H287        H  0.16196282  0.19736070  0.09745132     0.11120
H288        H  0.09038858  0.27895725  0.05155599     0.11120
C289        C  0.09453847  0.17501472  0.37373341    -0.15020
C290        C  0.08340139  0.20773521  0.35672763     0.07130
C291        C  0.10808603  0.23564134  0.35149247    -0.15020
C292        C  0.14183273  0.23286946  0.36723172    -0.15020
C293        C  0.15007321  0.20333645  0.39061399     0.07130
C294        C  0.12807001  0.17278775  0.39068020    -0.15020
H295        H  0.07641806  0.15226248  0.37597322     0.11120
H296        H  0.10077147  0.26009111  0.33635195     0.11120
H297        H  0.15918939  0.25626301  0.36548744     0.11120
H298        H  0.13473022  0.14903354  0.40706481     0.11120
C299        C  0.36962197  0.23227003  0.34457304    -0.15020
C300        C  0.38136971  0.26730985  0.33486198     0.07130
C301        C  0.37518642  0.29523105  0.35795550    -0.15020
C302        C  0.36145218  0.28770593  0.39166631    -0.15020
C303        C  0.35562901  0.25182598  0.40421899     0.07130
C304        C  0.35743584  0.22439662  0.37948555    -0.15020
H305        H  0.37324401  0.21044782  0.32647264     0.11120
H306        H  0.38284956  0.32270013  0.35057663     0.11120
H307        H  0.35617737  0.31044057  0.40781579     0.11120
H308        H  0.35051797  0.19694715  0.38738485     0.11120
C309        C  0.31734677  0.39581962  0.47240366    -0.15020
C310        C  0.32731061  0.36223066  0.45829934     0.07130
C311        C  0.36023701  0.34741427  0.47073292    -0.15020
C312        C  0.37312453  0.35622297  0.00385371    -0.15020
C313        C  0.36682115  0.39131298  0.01526111     0.07130
C314        C  0.33746355  0.41070429  0.49995815    -0.15020
H315        H  0.29300552  0.40958146  0.46330573     0.11120
H316        H  0.37362822  0.32533346  0.45845505     0.11120
H317        H  0.39640129  0.34093219  0.01384400     0.11120
H318        H  0.33162204  0.43805229  0.50771210     0.11110
C319        C  0.43879564  0.15808802  0.00347879    -0.15020
C320        C  0.42854817  0.12422485  0.01841052     0.07130
C321        C  0.40354914  0.12340204  0.54651734    -0.15020
C322        C  0.38709217  0.15524824  0.05763962    -0.15020
C323        C  0.39355093  0.18873037  0.03968196     0.07130
C324        C  0.42096070  0.19007910  0.01359518    -0.15020
H325        H  0.45870050  0.15949145  0.98227800     0.11120
H326        H  0.39610970  0.09791021  0.55949014     0.11120
H327        H  0.36609488  0.15308380  0.57779499     0.11120
H328        H  0.42603685  0.21506792  0.99859869     0.11120
C329        C  0.09163668  0.39055308  0.02134116    -0.15020
C330        C  0.08868068  0.41671981  0.04726108     0.07130
C331        C  0.12137148  0.43320366  0.05683438    -0.15020
C332        C  0.15526898  0.42577316  0.04034436    -0.15020
C333        C  0.16180595  0.39726681  0.01444561     0.07130
C334        C  0.12397143  0.38433284  0.50257997    -0.15020
H335        H  0.06714727  0.37943937  0.51077852     0.11120
H336        H  0.11985775  0.45633877  0.07364640     0.11120
H337        H  0.17711127  0.44375445  0.04558417     0.11120
H338        H  0.12240616  0.36646076  0.48056889     0.11120
C339        C  0.12213762  0.08231474  0.01799253    -0.15020
C340        C  0.10027463  0.08095781  0.48787898     0.07130
C341        C  0.09475684  0.11224535  0.46636859    -0.15020
C342        C  0.10754885  0.14512742  0.47667263    -0.15020
C343        C  0.12882407  0.14700737  0.50703974     0.07130
C344        C  0.13697364  0.11520120  0.02721127    -0.15020
H345        H  0.12533534  0.05877328  0.03573963     0.11120
H346        H  0.07686310  0.11207470  0.44374263     0.11120
H347        H  0.10123069  0.16907291  0.46038793     0.11120
H348        H  0.15410396  0.11599307  0.05037845     0.11120
C349        C  0.34145550  0.98624063  0.44642501    -0.15020
C350        C  0.37281760  0.46784101  0.43512342     0.07130
C351        C  0.36980342  0.44220741  0.40883748    -0.15020
C352        C  0.33686926  0.43793741  0.39164883    -0.15020
C353        C  0.30657877  0.45945854  0.40028429     0.07130
C354        C  0.30857033  0.98187151  0.42934182    -0.15020
H355        H  0.34265356  0.00555456  0.46730874     0.11120
H356        H  0.39322347  0.42692968  0.40028177     0.11120
H357        H  0.33601109  0.42046981  0.36918851     0.11120
H358        H  0.28592243  0.99911161  0.43625505     0.11120
C359        C  0.07025498  0.06357207  0.33843641    -0.15020
C360        C  0.07235934  0.05039988  0.37338503     0.07130
C361        C  0.10409654  0.05582376  0.39273590    -0.15020
C362        C  0.13410912  0.07185457  0.37660715    -0.15020
C363        C  0.13396546  0.08010238  0.34003268     0.07130
C364        C  0.10074295  0.07842293  0.32204108    -0.15020
H365        H  0.04525427  0.06214858  0.32379182     0.11120
H366        H  0.10566107  0.04743684  0.42049744     0.11120
H367        H  0.15910727  0.07241057  0.39138812     0.11120
H368        H  0.09876008  0.08418541  0.29410318     0.11120
C369        C  0.06669961  0.07168341  0.15488099    -0.15020
C370        C  0.06384336  0.03854311  0.13820681     0.07130
C371        C  0.05897311  0.00704206  0.16015656    -0.15020
C372        C  0.06069949  0.00818495  0.19741144    -0.15020
C373        C  0.06956815  0.04037516  0.21362002     0.07130
C374        C  0.06921866  0.07258216  0.19208370    -0.15020
H375        H  0.06862564  0.09671866  0.13916692     0.11120
H376        H  0.05444143  0.48115240  0.14851073     0.11120
H377        H  0.05947204  0.48306877  0.21302803     0.11120
H378        H  0.07544751  0.09810134  0.20370354     0.11120
C379        C  0.39783483  0.97711926  0.13575126    -0.15020
C380        C  0.39660991  0.97660245  0.09879837     0.07130
C381        C  0.36235129  0.97740249  0.08202397    -0.15020
C382        C  0.33023225  0.98116974  0.10145112    -0.15020
C383        C  0.33151211  0.98334068  0.13829643     0.07130
C384        C  0.36564681  0.98043924  0.15522664    -0.15020
H385        H  0.42352250  0.97732315  0.14932479     0.11120
H386        H  0.36049282  0.97694378  0.05333581     0.11120
H387        H  0.30466746  0.98320449  0.08767471     0.11120
H388        H  0.36774780  0.98295916  0.18364443     0.11120
C389        C  0.40209509  0.12483798  0.41638635    -0.15020
C390        C  0.40635586  0.09284965  0.39693554     0.07130
C391        C  0.40157350  0.09590699  0.36044106    -0.15020
C392        C  0.40753380  0.12945149  0.34371506    -0.15020
C393        C  0.41825535  0.15935058  0.36339371     0.07130
C394        C  0.41191700  0.15798190  0.40002894    -0.15020
H395        H  0.40186215  0.12298029  0.44514631     0.11120
H396        H  0.40197665  0.07207233  0.34453437     0.11120
H397        H  0.41089111  0.12992249  0.31549611     0.11120
H398        H  0.41831982  0.18067313  0.41614334     0.11120
C399        C  0.00636529  0.37956581  0.39748527    -0.15020
C400        C  0.03487528  0.40432519  0.40090542     0.07130
C401        C  0.06435531  0.39873121  0.37678266    -0.15020
C402        C  0.06394972  0.37087468  0.35024243    -0.15020
C403        C  0.03399718  0.34725948  0.34635685     0.07130
C404        C  0.00597353  0.35251192  0.37172222    -0.15020
H405        H  0.98300416  0.38147312  0.41482169     0.11120
H406        H  0.08721561  0.41660889  0.37743099     0.11120
H407        H  0.08663949  0.36871498  0.33222881     0.11120
H408        H  0.98223490  0.33573364  0.37135875     0.11120
C409        C  0.01188428  0.39332549  0.12459269    -0.15020
C410        C  0.98005889  0.38704084  0.09897487     0.07130
C411        C  0.44575826  0.38668770  0.12373678    -0.15020
C412        C  0.44518317  0.39639578  0.16021154    -0.15020
C413        C  0.97662936  0.39988907  0.18138872     0.07130
C414        C  0.00843526  0.40259832  0.16086999    -0.15020
H415        H  0.03871298  0.39317861  0.11310017     0.11120
H416        H  0.42004185  0.38154077  0.11151501     0.11120
H417        H  0.41875407  0.39919138  0.17154751     0.11120
H418        H  0.03217657  0.41020688  0.17469348     0.11120
C419        C  0.99253556  0.12118100  0.10384320    -0.15020
C420        C  0.47059637  0.09391482  0.11925457     0.07130
C421        C  0.43776712  0.10373178  0.13492553    -0.15020
C422        C  0.42877032  0.14033048  0.13749890    -0.15020
C423        C  0.45233946  0.16724756  0.12376357     0.07130
C424        C  0.98257826  0.15713736  0.10438223    -0.15020
H425        H  0.01620743  0.11496371  0.08851649     0.11120
H426        H  0.41888501  0.08327504  0.14419612     0.11120
H427        H  0.40496702  0.14775782  0.15260652     0.11120
H428        H  0.00096279  0.17713497  0.09316767     0.11120
O429        O  0.03391646  0.06558694  0.91671500    -0.89850
C430        C  0.47375382  0.05956891  0.60241812     1.10190
O431        O  0.98829050  0.02001177  0.96104049    -1.37660
O432        O  0.05099168  0.06417313  0.57963441    -0.91330
O433        O  0.02014649  0.51463089  0.88873368    -0.92000
O434        O  0.05081429  0.45506864  0.94416451    -0.80820
O435        O  0.04116845  0.06977973  0.99424727    -1.02910
C436        C  0.05661860  0.44138230  0.54190489     1.20230
O437        O  0.47822460  0.46206293  0.50198023    -1.37800
Mn438      Mn  0.45358743  0.01049350  0.50442736     1.82050
O439        O  0.06221466  0.46185250  0.51603224    -0.79900
O440        O  0.05919749  0.00591681  0.58569761    -0.89290
C441        C  0.42921050  0.98210137  0.57614072     1.11320
C442        C  0.06082793  0.03653951  0.59860513     1.06040
O443        O  0.40876496  0.99842236  0.97533811    -0.80830
O444        O  0.00279261  0.01705094  0.53250417    -1.34530
O445        O  0.43676904  0.46218037  0.94068765    -1.00050
C446        C  0.48621957  0.36997725  0.55392599     1.04760
Mn447      Mn  0.00793672  0.98723928  0.58345573     1.48570
O448        O  0.48288965  0.38097478  0.01872241    -0.89240
Mn449      Mn  0.47431274  0.49107887  0.91582027     1.49560
O450        O  0.45859357  0.08381691  0.92800058    -0.93120
C451        C  0.07050106  0.05612763  0.98866397     1.17950
C452        C  0.43573772  0.06825700  0.90926491     1.10010
Mn453      Mn  0.02722413  0.48973790  0.98812878     1.80970
O454        O  0.45892025  0.46623717  0.58078308    -0.98270
Mn455      Mn  0.00222886  0.07485561  0.95867320     1.49260
C456        C  0.03964019  0.04258185  0.89352778     1.06530
Mn457      Mn  0.47555446  0.43165908  0.54516730     1.49930
C458        C  0.40134818  0.40943122  0.51506888     1.09430
O459        O  0.49805969  0.44461578  0.93437785    -1.04070
O460        O  0.98853791  0.03105643  0.61561866    -0.93740
C461        C  0.02871850  0.43576795  0.92761785     1.20720
O462        O  0.02700758  0.44320575  0.55871132    -1.04460
O463        O  0.96828827  0.06211368  0.57020873    -0.91860
O464        O  0.41902137  0.41822237  0.54189030    -0.91470
O465        O  0.43885119  0.03524474  0.89990837    -0.91490
Mn466      Mn  0.01129077  0.07113188  0.53737841     1.47860
O467        O  0.42315198  0.00005248  0.54795731    -0.79970
C468        C  0.40811741  0.47634282  0.95072132     1.13770
O469        O  0.07252603  0.02343506  0.98040299    -0.78700
O470        O  0.42712775  0.06108236  0.00723545    -0.78310
Mn471      Mn  0.46388006  0.42282548  0.97051810     1.51060
O472        O  0.47946774  0.39163708  0.57426423    -0.90670
O473        O  0.97682390  0.08660637  0.00120035    -0.98190
O474        O  0.41547332  0.40989880  0.98536648    -0.93200
C475        C  0.44461163  0.08965852  0.00647020     1.11560
O476        O  0.03860284  0.18771246  0.82023076    -0.89850
C477        C  0.45650433  0.19965989  0.64365689     1.10190
O478        O  0.48547302  0.23675098  0.78305547    -1.37660
O479        O  0.03323289  0.18722666  0.66032548    -0.91330
O480        O  0.02831886  0.24015372  0.84836178    -0.92000
O481        O  0.04750713  0.30025010  0.79704408    -0.80820
O482        O  0.03441714  0.18124205  0.74246960    -1.02910
C483        C  0.05274832  0.31374712  0.69748096     1.20230
O484        O  0.47626316  0.30038859  0.74376033    -1.37800
Mn485      Mn  0.44876420  0.25290673  0.74233977     1.82050
O486        O  0.05994590  0.28923970  0.71977811    -0.79900
O487        O  0.04900793  0.24436394  0.65815818    -0.89290
C488        C  0.42250525  0.28152645  0.67175550     1.11320
C489        C  0.05114029  0.21340691  0.64604195     1.06040
O490        O  0.40419698  0.26144864  0.77592358    -0.80830
O491        O  0.99454836  0.24039436  0.71142774    -1.34530
O492        O  0.43608833  0.28848871  0.81286331    -1.00050
C493        C  0.98234794  0.38627448  0.72153531     1.04760
Mn494      Mn  0.99986005  0.26809353  0.66061861     1.48570
O495        O  0.46108588  0.38476940  0.74884519    -0.89240
Mn496      Mn  0.47785429  0.26266773  0.83167761     1.49560
O497        O  0.46182594  0.17062310  0.82143308    -0.93120
C498        C  0.06434863  0.19592691  0.74292104     1.17950
C499        C  0.44413168  0.18473243  0.84598301     1.10010
Mn500      Mn  0.02323930  0.26596774  0.75312656     1.80970
O501        O  0.45303535  0.29389128  0.66484404    -0.98270
Mn502      Mn  0.99887638  0.17988305  0.78328604     1.49260
C503        C  0.04747621  0.21197501  0.84140773     1.06530
Mn504      Mn  0.47663782  0.32927323  0.69494086     1.49930
C505        C  0.39954116  0.34846868  0.73065021     1.09430
O506        O  0.49511080  0.31149900  0.81274692    -1.04070
O507        O  0.97547363  0.22603130  0.63192270    -0.93740
C508        C  0.02629727  0.31986950  0.81605542     1.20720
O509        O  0.02398896  0.31188024  0.68008261    -1.04460
O510        O  0.95136239  0.19502330  0.67609048    -0.91860
O511        O  0.42346459  0.34803863  0.70658691    -0.91470
O512        O  0.44855937  0.21745627  0.85495092    -0.91490
Mn513      Mn  0.99633755  0.18413561  0.70602325     1.47860
O514        O  0.41588687  0.26761448  0.70181897    -0.79970
C515        C  0.40804175  0.27318153  0.80637275     1.13770
O516        O  0.06658507  0.22752958  0.75514706    -0.78700
O517        O  0.42011030  0.20797930  0.74070123    -0.78310
Mn518      Mn  0.45345256  0.33203867  0.78376192     1.51060
O519        O  0.50569291  0.36306855  0.72430292    -0.90670
O520        O  0.46262085  0.16938381  0.74652041    -0.98190
O521        O  0.40435654  0.33529301  0.76125500    -0.93200
C522        C  0.42947413  0.17633367  0.74668822     1.11560
O523        O  0.29177139  0.05450927  0.84610274    -0.89850
C524        C  0.29897654  0.99109063  0.66026907     1.10190
O525        O  0.24141054  0.01243078  0.80142725    -1.37660
O526        O  0.31231678  0.06286670  0.68644680    -0.91330
O527        O  0.23301632  0.05631636  0.86248110    -0.92000
O528        O  0.19127434  0.08324503  0.80728150    -0.80820
O529        O  0.30704644  0.05135751  0.76898450    -1.02910
C530        C  0.18435642  0.09517913  0.71332795     1.20230
O531        O  0.18200630  0.01500028  0.75826995    -1.37800
Mn532      Mn  0.22479483  0.97943178  0.76023514     1.82060
O533        O  0.20812358  0.09836459  0.73601091    -0.79900
O534        O  0.25707242  0.08457156  0.67652602    -0.89290
C535        C  0.20180436  0.46348992  0.68739763     1.11320
C536        C  0.29040321  0.08505284  0.67042138     1.06040
O537        O  0.20557827  0.43437476  0.79395027    -0.80830
O538        O  0.24877583  0.02424049  0.72930477    -1.34530
O539        O  0.18082638  0.46870882  0.82994251    -1.00050
C540        C  0.09591958  0.03868794  0.74332195     1.04760
Mn541      Mn  0.22820094  0.03819613  0.67779646     1.48570
O542        O  0.09577335  0.01700506  0.77031314    -0.89240
Mn543      Mn  0.20908001  0.00899430  0.84778089     1.49560
O544        O  0.29305921  0.97021683  0.84116715    -0.93120
C545        C  0.30159762  0.08357497  0.76978954     1.17950
C546        C  0.28044815  0.96920745  0.87220965     1.10010
Mn547      Mn  0.22387043  0.05586971  0.76880657     1.80970
O548        O  0.19567985  0.99614990  0.68128345    -0.98270
Mn549      Mn  0.29769487  0.01468483  0.80728390     1.49260
C550        C  0.26448367  0.06988604  0.86045286     1.06530
Mn551      Mn  0.15810349  0.02235722  0.70776176     1.49930
C552        C  0.12389626  0.44702467  0.73514086     1.09430
O553        O  0.16786103  0.03297014  0.82325166    -1.04070
O554        O  0.27231696  0.01104431  0.64945416    -0.93740
C555        C  0.16523137  0.06555715  0.82136994     1.20720
O556        O  0.18468159  0.06660424  0.69629023    -1.04460
O557        O  0.30138613  0.98172880  0.69228469    -0.91860
O558        O  0.12884876  0.47323773  0.71272905    -0.91470
O559        O  0.24876878  0.48090670  0.87926514    -0.91490
Mn560      Mn  0.30541069  0.02084123  0.72831588     1.47860
O561        O  0.20952636  0.45121636  0.71797289    -0.79970
C562        C  0.19140729  0.43819362  0.82428438     1.13770
O563        O  0.26891871  0.09354961  0.77510316    -0.78700
O564        O  0.26552273  0.44418855  0.76196989    -0.78310
Mn565      Mn  0.14434943  0.49453709  0.79731641     1.51060
O566        O  0.12469770  0.05319614  0.73612669    -0.90670
O567        O  0.30558397  0.98397294  0.76697871    -0.98190
O568        O  0.13120840  0.44919309  0.76826252    -0.93200
C569        C  0.29749879  0.95236701  0.76365417     1.11560
O570        O  0.33660819  0.21399972  0.95467821    -0.89850
C571        C  0.14859314  0.18025190  0.01198904     1.10190
O572        O  0.28378405  0.25291457  0.00468974    -1.37660
O573        O  0.18379035  0.18685091  0.94368471    -0.91330
O574        O  0.34338809  0.27279246  0.96065117    -0.92000
O575        O  0.28522289  0.31588884  0.93751319    -0.80820
O576        O  0.26128601  0.19848699  0.96087679    -1.02910
C577        C  0.18831533  0.32116109  0.93752519     1.20230
O578        O  0.23156397  0.30762509  0.51158596    -1.37800
Mn579      Mn  0.23877540  0.25916240  0.54039768     1.82050
O580        O  0.21409952  0.30052451  0.93012095    -0.79900
O581        O  0.16744182  0.24423246  0.93131530    -0.89290
C582        C  0.16135042  0.26039168  0.55696838     1.11320
C583        C  0.16986114  0.21157085  0.92297121     1.06040
O584        O  0.26896174  0.27681436  0.58459154    -0.80830
O585        O  0.21273843  0.24212952  0.99354999    -1.34530
O586        O  0.30218692  0.30999420  0.55121187    -1.00050
C587        C  0.20317634  0.39698009  0.99205936     1.04760
Mn588      Mn  0.15982988  0.26058402  0.98145080     1.48570
O589        O  0.23633570  0.38548787  0.99410796    -0.89240
Mn590      Mn  0.32599318  0.28771855  0.50989208     1.49560
O591        O  0.33255114  0.19973991  0.03718345    -0.93120
C592        C  0.26236491  0.20592120  0.92962183     1.17950
C593        C  0.36264910  0.21466140  0.53728571     1.10010
Mn594      Mn  0.24894180  0.27631792  0.96475194     1.80970
O595        O  0.15731438  0.27761617  0.52874278    -0.98270
Mn596      Mn  0.29846621  0.19935359  0.99508067     1.49260
C597        C  0.34503150  0.24522207  0.94210696     1.06530
Mn598      Mn  0.17709791  0.32528111  0.51779577     1.49930
C599        C  0.20923720  0.35786025  0.58340724     1.09430
O600        O  0.29328346  0.32373549  0.98973309    -1.04070
O601        O  0.13794581  0.20934784  0.99584569    -0.93740
C602        C  0.29871448  0.33517230  0.96053997     1.20720
O603        O  0.17040141  0.31371182  0.96571127    -1.04460
O604        O  0.17971387  0.17715203  0.02470931    -0.91860
O605        O  0.18460156  0.33739328  0.57177831    -0.91470
O606        O  0.36537077  0.24891585  0.53149226    -0.91490
Mn607      Mn  0.22022738  0.18664028  0.98890009     1.47860
O608        O  0.19200057  0.25960544  0.57131220    -0.79970
C609        C  0.29767812  0.29452254  0.57983335     1.13770
O610        O  0.26118137  0.23946025  0.92108108    -0.78700
O611        O  0.24545900  0.21199688  0.56946395    -0.78310
Mn612      Mn  0.26749543  0.34559764  0.52604465     1.51060
O613        O  0.18377392  0.37812604  0.50901318    -0.90670
O614        O  0.25968359  0.18006534  0.02594579    -0.98190
O615        O  0.24015688  0.36181117  0.56934828    -0.93200
C616        C  0.25851249  0.18354404  0.55831785     1.11560
C617        C  0.29613150  0.09786863  0.60584987    -0.15020
C618        C  0.30071495  0.11002620  0.64068646     0.07130
C619        C  0.29682548  0.14709070  0.64611977    -0.15020
C620        C  0.28465201  0.17064288  0.61870476    -0.15020
C621        C  0.27602191  0.15791699  0.58488514     0.07130
C622        C  0.28397210  0.12159858  0.57812228    -0.15020
H623        H  0.29790197  0.06920025  0.60104411     0.11120
H624        H  0.29914989  0.15718489  0.67267000     0.11120
H625        H  0.28005570  0.19872943  0.62472836     0.11120
H626        H  0.27842838  0.11104003  0.55229304     0.11120
C627        C  0.20942958  0.44647680  0.62599428    -0.15020
C628        C  0.19743983  0.43741969  0.66008522     0.07130
C629        C  0.18667595  0.40172136  0.66905711    -0.15020
C630        C  0.18743203  0.37529224  0.64353736    -0.15020
C631        C  0.20150222  0.38422473  0.61001407     0.07130
C632        C  0.21298302  0.41971570  0.60176749    -0.15020
H633        H  0.21881929  0.47343805  0.61896590     0.11120
H634        H  0.17853857  0.39415933  0.69596358     0.11120
H635        H  0.17951565  0.34784740  0.65054302     0.11120
H636        H  0.22579972  0.42663554  0.57649875     0.11120
C637        C  0.19590565  0.34438208  0.87336717    -0.15020
C638        C  0.18065269  0.35009379  0.90768082     0.07130
C639        C  0.16628991  0.38514648  0.91249040    -0.15020
C640        C  0.16870409  0.41300024  0.88531283    -0.15020
C641        C  0.18569238  0.40729217  0.85197161     0.07130
C642        C  0.19856274  0.37206926  0.84650143    -0.15020
H643        H  0.20752589  0.31826269  0.86743808     0.11120
H644        H  0.15491205  0.39211673  0.93761537     0.11120
H645        H  0.15819281  0.43963092  0.89098460     0.11120
H646        H  0.21173195  0.36598099  0.82161034     0.11120
C647        C  0.25085157  0.10878577  0.90920828    -0.15020
C648        C  0.26818744  0.10507712  0.87678730     0.07130
C649        C  0.28254166  0.13604321  0.85888148    -0.15020
C650        C  0.27923568  0.17053931  0.87388366    -0.15020
C651        C  0.26206129  0.17372566  0.90703873     0.07130
C652        C  0.24779382  0.14209777  0.92387074    -0.15020
H653        H  0.23913262  0.08562294  0.92331100     0.11120
H654        H  0.29533470  0.13365371  0.83318898     0.11120
H655        H  0.29049383  0.19404079  0.86016038     0.11120
H656        H  0.23476253  0.14245039  0.94965697     0.11120
C657        C  0.39979455  0.11315271  0.74968119    -0.15020
C658        C  0.39793884  0.15082525  0.75227495     0.07130
C659        C  0.36342037  0.16620222  0.76036391    -0.15020
C660        C  0.33233448  0.14517887  0.76601834    -0.15020
C661        C  0.33422932  0.10758509  0.76426649     0.07130
C662        C  0.36856024  0.09197630  0.75581727    -0.15020
H663        H  0.42520694  0.10008381  0.74327702     0.11120
H664        H  0.36016243  0.19515758  0.76256946     0.11120
H665        H  0.30686203  0.15845131  0.77181276     0.11120
H666        H  0.37137509  0.06296881  0.75368243     0.11120
C667        C  0.33615542  0.36357469  0.73835258    -0.15020
C668        C  0.37061835  0.37421579  0.72769853     0.07130
C669        C  0.38101911  0.41045901  0.72975493    -0.15020
C670        C  0.35784445  0.43565618  0.74357233    -0.15020
C671        C  0.32363386  0.42510057  0.75467661     0.07130
C672        C  0.31255736  0.38905000  0.75172273    -0.15020
H673        H  0.32862900  0.33534119  0.73874590     0.11120
H674        H  0.40833464  0.41897563  0.72443608     0.11120
H675        H  0.36672240  0.46329405  0.74566459     0.11120
H676        H  0.28586043  0.38050556  0.76013380     0.11120
C677        C  0.11552764  0.17560407  0.70091762    -0.15020
C678        C  0.09751063  0.17399895  0.73426278     0.07130
C679        C  0.11022093  0.14887677  0.75941862    -0.15020
C680        C  0.13796406  0.12476638  0.75087301    -0.15020
C681        C  0.15296203  0.12196136  0.71670940     0.07130
C682        C  0.14260925  0.14941921  0.69182688    -0.15020
H683        H  0.10913489  0.19759627  0.68253657     0.11120
H684        H  0.09875353  0.14805462  0.78598128     0.11120
H685        H  0.14754028  0.10716302  0.77124842     0.11120
H686        H  0.15633529  0.15147858  0.66639156     0.11120
C687        C  0.08691543  0.37230133  0.67600726    -0.15020
C688        C  0.07505553  0.34721127  0.70238883     0.07130
C689        C  0.08499841  0.35372002  0.73766857    -0.15020
C690        C  0.10051126  0.38553977  0.74755183    -0.15020
C691        C  0.10853802  0.41263009  0.72234480     0.07130
C692        C  0.10261174  0.40542075  0.68598203    -0.15020
H693        H  0.08279844  0.36715593  0.64827515     0.11120
H694        H  0.08047906  0.33413902  0.75857277     0.11120
H695        H  0.10607595  0.38882235  0.77541191     0.11120
H696        H  0.10980373  0.42531524  0.66540626     0.11120
C697        C  0.39225184  0.30581610  0.61574782    -0.15020
C698        C  0.39090367  0.28556779  0.64772699     0.07130
C699        C  0.35770864  0.26956390  0.65821727    -0.15020
C700        C  0.32683076  0.27355851  0.63721742    -0.15020
C701        C  0.32815379  0.29394001  0.60529360     0.07130
C702        C  0.36112985  0.31042203  0.59510762    -0.15020
H703        H  0.41727859  0.31782259  0.60661430     0.11120
H704        H  0.35550533  0.25345782  0.68273871     0.11120
H705        H  0.30222711  0.26014522  0.64562097     0.11120
H706        H  0.36324948  0.32608339  0.57043955     0.11120
C707        C  0.06657734  0.24005681  0.58785048    -0.15020
C708        C  0.07256210  0.21146986  0.61297056     0.07130
C709        C  0.10607324  0.19370040  0.61288564    -0.15020
C710        C  0.13538445  0.20967475  0.59478386    -0.15020
C711        C  0.13040874  0.24183749  0.57410244     0.07130
C712        C  0.09527142  0.25516725  0.56858300    -0.15020
H713        H  0.04056969  0.25380942  0.58666376     0.11120
H714        H  0.11022174  0.16949305  0.62916354     0.11120
H715        H  0.16196026  0.19735999  0.59744905     0.11120
H716        H  0.09038515  0.27895674  0.55155540     0.11120
C717        C  0.09453813  0.17501434  0.87373687    -0.15020
C718        C  0.08340166  0.20773473  0.85673038     0.07130
C719        C  0.10808688  0.23564035  0.85149521    -0.15020
C720        C  0.14183354  0.23286802  0.86723466    -0.15020
C721        C  0.15007376  0.20333503  0.89061715     0.07130
C722        C  0.12806965  0.17278694  0.89068392    -0.15020
H723        H  0.07641732  0.15226243  0.87597683     0.11120
H724        H  0.10077287  0.26009005  0.83635429     0.11120
H725        H  0.15919069  0.25626121  0.86548997     0.11120
H726        H  0.13472947  0.14903277  0.90706870     0.11120
C727        C  0.36962442  0.23226869  0.84457548    -0.15020
C728        C  0.38137059  0.26730872  0.83486316     0.07130
C729        C  0.37518583  0.29523064  0.85795543    -0.15020
C730        C  0.36145137  0.28770618  0.89166625    -0.15020
C731        C  0.35563051  0.25182629  0.90422053     0.07130
C732        C  0.35743878  0.22439600  0.87948825    -0.15020
H733        H  0.37324720  0.21044600  0.82647577     0.11120
H734        H  0.38284749  0.32269989  0.85057543     0.11120
H735        H  0.35617426  0.31044132  0.90781433     0.11120
H736        H  0.35052200  0.19694651  0.88738856     0.11120
C737        C  0.31734416  0.39582012  0.97240249    -0.15020
C738        C  0.32730905  0.36223198  0.95829685     0.07130
C739        C  0.36023617  0.34741667  0.97072954    -0.15020
C740        C  0.37312709  0.35622264  0.50385581    -0.15020
C741        C  0.36682424  0.39131309  0.51526206     0.07130
C742        C  0.33746015  0.41070412  0.99995794    -0.15020
H743        H  0.29300267  0.40958165  0.96330486     0.11120
H744        H  0.37362864  0.32533732  0.95845038     0.11120
H745        H  0.39640376  0.34093188  0.51384633     0.11120
H746        H  0.33161791  0.43805155  0.00771328     0.11110
C747        C  0.43879588  0.15808612  0.50348415    -0.15020
C748        C  0.42854812  0.12422286  0.51841534     0.07130
C749        C  0.40355012  0.12340434  0.04651329    -0.15020
C750        C  0.38709037  0.15524579  0.55764309    -0.15020
C751        C  0.39354917  0.18872790  0.53968538     0.07130
C752        C  0.42096023  0.19007695  0.51359994    -0.15020
H753        H  0.45870140  0.15948978  0.48228396     0.11120
H754        H  0.39611096  0.09791263  0.05948651     0.11120
H755        H  0.36609775  0.15308648  0.07779263     0.11120
H756        H  0.42603647  0.21506573  0.49860342     0.11120
C757        C  0.09163629  0.39055550  0.52133815    -0.15020
C758        C  0.08868014  0.41671897  0.54726130     0.07130
C759        C  0.12137102  0.43320049  0.55683779    -0.15020
C760        C  0.15526890  0.42577055  0.54034824    -0.15020
C761        C  0.16180584  0.39726776  0.51444617     0.07130
C762        C  0.12397160  0.38432816  0.00258329    -0.15020
H763        H  0.06714764  0.37943466  0.01078397     0.11120
H764        H  0.11985739  0.45633367  0.57365233     0.11120
H765        H  0.17711128  0.44375077  0.54559049     0.11120
H766        H  0.12240629  0.36645186  0.98057566     0.11120
C767        C  0.12213705  0.08231449  0.51799324    -0.15020
C768        C  0.10027372  0.08095999  0.98787912     0.07130
C769        C  0.09475546  0.11224865  0.96637050    -0.15020
C770        C  0.10754879  0.14512986  0.97667546    -0.15020
C771        C  0.12882584  0.14700789  0.00704157     0.07130
C772        C  0.13697169  0.11520177  0.52721121    -0.15020
H773        H  0.12533439  0.05877394  0.53574161     0.11120
H774        H  0.07686068  0.11207938  0.94374524     0.11120
H775        H  0.10123032  0.16907617  0.96039205     0.11120
H776        H  0.15410076  0.11599517  0.55037918     0.11120
C777        C  0.34145535  0.98623836  0.94642485    -0.15020
C778        C  0.37281650  0.46783813  0.93512389     0.07130
C779        C  0.36980184  0.44220349  0.90883898    -0.15020
C780        C  0.33686731  0.43793296  0.89165111    -0.15020
C781        C  0.30657723  0.45945486  0.90028622     0.07130
C782        C  0.30857018  0.98186879  0.92934199    -0.15020
H783        H  0.34265320  0.00555212  0.96730875     0.11120
H784        H  0.39322181  0.42692576  0.90028310     0.11120
H785        H  0.33600886  0.42046530  0.86919085     0.11120
H786        H  0.28592214  0.99910858  0.93625550     0.11120
C787        C  0.07025506  0.06357390  0.83843584    -0.15020
C788        C  0.07235874  0.05040241  0.87338473     0.07130
C789        C  0.10409589  0.05582604  0.89273579    -0.15020
C790        C  0.13410916  0.07185551  0.87660693    -0.15020
C791        C  0.13396595  0.08010299  0.84003239     0.07130
C792        C  0.10074355  0.07842375  0.82204054    -0.15020
H793        H  0.04525450  0.06215054  0.82379099     0.11120
H794        H  0.10565999  0.04743965  0.92049749     0.11120
H795        H  0.15910722  0.07241110  0.89138809     0.11120
H796        H  0.09876099  0.08418582  0.79410257     0.11120
C797        C  0.06670039  0.07168193  0.65488186    -0.15020
C798        C  0.06384391  0.03854167  0.63820763     0.07130
C799        C  0.05897393  0.00704059  0.66015740    -0.15020
C800        C  0.06070084  0.00818331  0.69741228    -0.15020
C801        C  0.06956915  0.04037356  0.71362094     0.07130
C802        C  0.06921965  0.07258060  0.69208460    -0.15020
H803        H  0.06862635  0.09671720  0.63916782     0.11120
H804        H  0.05444348  0.48115210  0.64851015     0.11120
H805        H  0.05947396  0.48306710  0.71302748     0.11120
H806        H  0.07544840  0.09809980  0.70370445     0.11120
C807        C  0.39783727  0.97712732  0.63575453    -0.15020
C808        C  0.39661302  0.97660064  0.59880207     0.07130
C809        C  0.36235469  0.97739404  0.58202726    -0.15020
C810        C  0.33023496  0.98116362  0.60145296    -0.15020
C811        C  0.33151400  0.98334394  0.63829740     0.07130
C812        C  0.36564864  0.98044991  0.65522855    -0.15020
H813        H  0.42352467  0.97733687  0.64932813     0.11120
H814        H  0.36049703  0.97692866  0.55333943     0.11120
H815        H  0.30467020  0.98319227  0.58767599     0.11120
H816        H  0.36774869  0.98297690  0.68364562     0.11120
C817        C  0.40209532  0.12483679  0.91638394    -0.15020
C818        C  0.40635610  0.09284838  0.89693334     0.07130
C819        C  0.40157483  0.09590567  0.86043875    -0.15020
C820        C  0.40753773  0.12944957  0.84371283    -0.15020
C821        C  0.41825886  0.15934843  0.86339186     0.07130
C822        C  0.41191912  0.15798022  0.90002686    -0.15020
H823        H  0.40186120  0.12297912  0.94514388     0.11120
H824        H  0.40197782  0.07207091  0.84453220     0.11120
H825        H  0.41089700  0.12992001  0.81549411     0.11120
H826        H  0.41832186  0.18067139  0.91614139     0.11120
C827        C  0.00636868  0.37955999  0.89749137    -0.15020
C828        C  0.03487547  0.40432392  0.90090679     0.07130
C829        C  0.06435293  0.39873389  0.87678021    -0.15020
C830        C  0.06394780  0.37087671  0.85024083    -0.15020
C831        C  0.03399810  0.34725719  0.84635954     0.07130
C832        C  0.00597726  0.35250550  0.87172878    -0.15020
H833        H  0.98300969  0.38146443  0.91483095     0.11120
H834        H  0.08721042  0.41661542  0.87742470     0.11120
H835        H  0.08663545  0.36871996  0.83222435     0.11120
H836        H  0.98224101  0.33572365  0.87136842     0.11120
C837        C  0.01188508  0.39332335  0.62459471    -0.15020
C838        C  0.98005959  0.38704099  0.59897650     0.07130
C839        C  0.44576069  0.38668607  0.62373254    -0.15020
C840        C  0.44518300  0.39639278  0.66020778    -0.15020
C841        C  0.97662980  0.39988839  0.68139046     0.07130
C842        C  0.00843620  0.40259593  0.66087210    -0.15020
H843        H  0.03871402  0.39317474  0.61310270     0.11120
H844        H  0.42004496  0.38154166  0.61150817     0.11120
H845        H  0.41875293  0.39918785  0.67154157     0.11120
H846        H  0.03217809  0.41020219  0.67469607     0.11120
C847        C  0.99253655  0.12118012  0.60384688    -0.15020
C848        C  0.47060037  0.09391056  0.61926570     0.07130
C849        C  0.43776649  0.10372949  0.63492669    -0.15020
C850        C  0.42876972  0.14032874  0.63749631    -0.15020
C851        C  0.45234203  0.16724438  0.62376404     0.07130
C852        C  0.98257891  0.15713646  0.60438459    -0.15020
H853        H  0.01620975  0.11496266  0.58852220     0.11120
H854        H  0.41888086  0.08327377  0.64419194     0.11120
H855        H  0.40496262  0.14775784  0.65259735     0.11120
H856        H  0.00096407  0.17713391  0.59317085     0.11120
O857        O  0.03391642  0.56558633  0.41671589    -0.89850
C858        C  0.47374664  0.55957194  0.10240772     1.10190
O859        O  0.98829066  0.52001105  0.46104116    -1.37660
O860        O  0.05098914  0.56417533  0.07963399    -0.91330
O861        O  0.02014822  0.01462975  0.38873283    -0.92000
O862        O  0.05081436  0.95506587  0.44416520    -0.80820
O863        O  0.04116746  0.56978100  0.49424800    -1.02910
C864        C  0.05661721  0.94138105  0.04190368     1.20230
O865        O  0.47822060  0.96206430  0.00197795    -1.37800
Mn866      Mn  0.45358629  0.51049216  0.00442543     1.82050
O867        O  0.06221290  0.96185004  0.01603007    -0.79900
O868        O  0.05919774  0.50591940  0.08569604    -0.89290
C869        C  0.42921058  0.48210192  0.07614021     1.11320
C870        C  0.06082700  0.53654188  0.09860410     1.06040
O871        O  0.40876525  0.49841633  0.47534239    -0.80830
O872        O  0.00279146  0.51705169  0.03250399    -1.34530
O873        O  0.43676898  0.96218595  0.44068758    -1.00050
C874        C  0.48620673  0.86997861  0.05392500     1.04760
Mn875      Mn  0.00793762  0.48724016  0.08345537     1.48570
O876        O  0.48288527  0.88097479  0.51871898    -0.89240
Mn877      Mn  0.47431261  0.99108396  0.41582105     1.49560
O878        O  0.45858896  0.58381449  0.42800088    -0.93120
C879        C  0.07050037  0.55612921  0.48866519     1.17950
C880        C  0.43573447  0.56825410  0.40926419     1.10010
Mn881      Mn  0.02722483  0.98973602  0.48812924     1.80970
O882        O  0.45891196  0.96623867  0.08077905    -0.98270
Mn883      Mn  0.00222816  0.57485524  0.45867337     1.49260
C884        C  0.03964040  0.54258094  0.39352903     1.06530
Mn885      Mn  0.47554500  0.93165978  0.04516391     1.49930
C886        C  0.40134048  0.90943510  0.01506167     1.09430
O887        O  0.49805816  0.94461943  0.43437579    -1.04070
O888        O  0.98853764  0.53105712  0.11561852    -0.93740
C889        C  0.02871805  0.93576664  0.42761759     1.20720
O890        O  0.02700603  0.94320460  0.05870990    -1.04460
O891        O  0.96828539  0.56211117  0.07020816    -0.91860
O892        O  0.41901127  0.91822707  0.04188423    -0.91470
O893        O  0.43884937  0.53524167  0.39990816    -0.91490
Mn894      Mn  0.01128744  0.57113298  0.03737823     1.47860
O895        O  0.42315107  0.50005132  0.04795589    -0.79970
C896        C  0.40811773  0.97634915  0.45072106     1.13770
O897        O  0.07252594  0.52343671  0.48040398    -0.78700
O898        O  0.42712523  0.56107814  0.50723889    -0.78310
Mn899      Mn  0.46387858  0.92282842  0.47051602     1.51060
O900        O  0.47945100  0.89163756  0.07426184    -0.90670
O901        O  0.97682243  0.58660609  0.50119990    -0.98190
O902        O  0.41547082  0.90990318  0.48536221    -0.93200
C903        C  0.44460763  0.58965536  0.50647101     1.11560
O904        O  0.03860174  0.68771205  0.32022864    -0.89850
C905        C  0.45650475  0.69966485  0.14365535     1.10190
O906        O  0.48547056  0.73675275  0.28305467    -1.37660
O907        O  0.03323383  0.68722726  0.16032352    -0.91330
O908        O  0.02831731  0.74015342  0.34835932    -0.92000
O909        O  0.04750671  0.80025181  0.29704064    -0.80820
O910        O  0.03441698  0.68124200  0.24246760    -1.02910
C911        C  0.05274875  0.81374677  0.19748023     1.20230
O912        O  0.47626752  0.80038894  0.24375582    -1.37800
Mn913      Mn  0.44876499  0.75290846  0.24233624     1.82050
O914        O  0.05994571  0.78923813  0.21977601    -0.79900
O915        O  0.04900882  0.74436456  0.15815710    -0.89290
C916        C  0.42251379  0.78153421  0.17175190     1.11320
C917        C  0.05114186  0.71340756  0.14604091     1.06040
O918        O  0.40419585  0.76145240  0.27591746    -0.80830
O919        O  0.99454839  0.74039457  0.21142549    -1.34530
O920        O  0.43608690  0.78848857  0.31286024    -1.00050
C921        C  0.98234724  0.88627500  0.22153264     1.04760
Mn922      Mn  0.99986081  0.76809416  0.16061658     1.48570
O923        O  0.46109878  0.88476385  0.24884204    -0.89240
Mn924      Mn  0.47785299  0.76266859  0.33167564     1.49560
O925        O  0.46181976  0.67062369  0.32143001    -0.93120
C926        C  0.06434850  0.69592676  0.24291962     1.17950
C927        C  0.44412650  0.68473254  0.34598066     1.10010
Mn928      Mn  0.02323893  0.76596778  0.25312432     1.80970
O929        O  0.45304563  0.79389754  0.16484303    -0.98270
Mn930      Mn  0.99887573  0.67988293  0.28328351     1.49260
C931        C  0.04747478  0.71197481  0.34140548     1.06530
Mn932      Mn  0.47665299  0.82927803  0.19493948     1.49930
C933        C  0.39954960  0.84847183  0.23064490     1.09430
O934        O  0.49511250  0.81149945  0.31274205    -1.04070
O935        O  0.97547483  0.72603191  0.13192025    -0.93740
C936        C  0.02629628  0.81986989  0.31605261     1.20720
O937        O  0.02398976  0.81188092  0.18008098    -1.04460
O938        O  0.95136297  0.69502476  0.17608812    -0.91860
O939        O  0.42347772  0.84804297  0.20658582    -0.91470
O940        O  0.44855614  0.71745620  0.35494952    -0.91490
Mn941      Mn  0.99633779  0.68413601  0.20602086     1.47860
O942        O  0.41589299  0.76761862  0.20181332    -0.79970
C943        C  0.40804022  0.77318216  0.30636800     1.13770
O944        O  0.06658473  0.72752952  0.25514550    -0.78700
O945        O  0.42010806  0.70798199  0.24069809    -0.78310
Mn946      Mn  0.45345478  0.83203619  0.28375797     1.51060
O947        O  0.50571781  0.86307971  0.22429436    -0.90670
O948        O  0.46261747  0.66938520  0.24651823    -0.98190
O949        O  0.40435988  0.83529387  0.26124934    -0.93200
C950        C  0.42947096  0.67633596  0.24668520     1.11560
O951        O  0.29176943  0.55451370  0.34610147    -0.89850
C952        C  0.29897796  0.49109045  0.16027002     1.10190
O953        O  0.24141027  0.51243089  0.30142757    -1.37660
O954        O  0.31231710  0.56286700  0.18644682    -0.91330
O955        O  0.23301501  0.55631542  0.36248260    -0.92000
O956        O  0.19127291  0.58324442  0.30728096    -0.80820
O957        O  0.30704444  0.55135944  0.26898387    -1.02910
C958        C  0.18435696  0.59517938  0.21332703     1.20230
O959        O  0.18200654  0.51500022  0.25826862    -1.37800
Mn960      Mn  0.22479522  0.47943180  0.26023506     1.82060
O961        O  0.20812316  0.59836470  0.23601087    -0.79900
O962        O  0.25707288  0.58457168  0.17652590    -0.89290
C963        C  0.20179918  0.96349037  0.18739772     1.11320
C964        C  0.29040360  0.58505321  0.17042146     1.06040
O965        O  0.20557085  0.93437225  0.29395053    -0.80830
O966        O  0.24877613  0.52424073  0.22930489    -1.34530
O967        O  0.18082244  0.96870848  0.32994321    -1.00050
C968        C  0.09591988  0.53868783  0.24331986     1.04760
Mn969      Mn  0.22820219  0.53819606  0.17779614     1.48570
O970        O  0.09577398  0.51700554  0.27031158    -0.89240
Mn971      Mn  0.20907987  0.50899295  0.34778091     1.49560
O972        O  0.29306554  0.47022154  0.34117025    -0.93120
C973        C  0.30159536  0.58357683  0.26978838     1.17950
C974        C  0.28045011  0.46920747  0.37221116     1.10010
Mn975      Mn  0.22386973  0.55586976  0.26880641     1.80970
O976        O  0.19568173  0.49614949  0.18128226    -0.98270
Mn977      Mn  0.29769477  0.51468794  0.30728434     1.49260
C978        C  0.26448107  0.56988803  0.36045289     1.06530
Mn979      Mn  0.15810504  0.52235789  0.20775941     1.49930
C980        C  0.12389230  0.94702535  0.23514298     1.09430
O981        O  0.16786048  0.53296906  0.32325194    -1.04070
O982        O  0.27231839  0.51104395  0.14945481    -0.93740
C983        C  0.16523060  0.56555615  0.32137007     1.20720
O984        O  0.18468291  0.56660464  0.19628907    -1.04460
O985        O  0.30138777  0.48172896  0.19228576    -0.91860
O986        O  0.12884477  0.97323878  0.21273130    -0.91470
O987        O  0.24876513  0.98090788  0.37926819    -0.91490
Mn988      Mn  0.30541084  0.52084209  0.22831642     1.47860
O989        O  0.20952041  0.95121529  0.21797269    -0.79970
C990        C  0.19140058  0.93819223  0.32428492     1.13770
O991        O  0.26891661  0.59355094  0.27510304    -0.78700
O992        O  0.26551836  0.94418214  0.26196836    -0.78310
Mn993      Mn  0.14434603  0.99453786  0.29731746     1.51060
O994        O  0.12469785  0.55319599  0.23612345    -0.90670
O995        O  0.30558458  0.48397455  0.26698029    -0.98190
O996        O  0.13120365  0.94919390  0.26826466    -0.93200
C997        C  0.29749932  0.45236844  0.26365677     1.11560
O998        O  0.33660367  0.71400238  0.45467289    -0.89850
C999        C  0.14859085  0.68025439  0.51199072     1.10190
O1000       O  0.28378141  0.75291764  0.50468589    -1.37660
O1001       O  0.18378586  0.68685440  0.44368518    -0.91330
O1002       O  0.34338469  0.77279519  0.46064503    -0.92000
O1003       O  0.28521795  0.81589299  0.43751053    -0.80820
O1004       O  0.26128133  0.69849107  0.46087397    -1.02910
C1005       C  0.18830620  0.82116449  0.43752510     1.20230
O1006       O  0.23156554  0.80762835  0.01158560    -1.37800
Mn1007     Mn  0.23877907  0.75916708  0.04039865     1.82050
O1008       O  0.21409473  0.80053348  0.43011946    -0.79900
O1009       O  0.16743554  0.74423560  0.43131664    -0.89290
C1010       C  0.16135458  0.76039571  0.05697186     1.11320
C1011       C  0.16985631  0.71157423  0.42297200     1.06040
O1012       O  0.26896839  0.77682192  0.08458968    -0.80830
O1013       O  0.21273518  0.74213328  0.49354907    -1.34530
O1014       O  0.30219178  0.81000142  0.05120743    -1.00050
C1015       C  0.20317696  0.89698587  0.49206422     1.04760
Mn1016     Mn  0.15982586  0.76058652  0.48145263     1.48570
O1017       O  0.23633620  0.88549347  0.49411273    -0.89240
Mn1018     Mn  0.32599541  0.78772397  0.00988679     1.49560
O1019       O  0.33254857  0.69974141  0.53717837    -0.93120
C1020       C  0.26235901  0.70592534  0.42961892     1.17950
C1021       C  0.36265121  0.71466747  0.03728057     1.10010
Mn1022     Mn  0.24893757  0.77632240  0.46474960     1.80970
O1023       O  0.15731782  0.77761970  0.02874609    -0.98270
Mn1024     Mn  0.29846268  0.69935655  0.49507655     1.49260
C1025       C  0.34502704  0.74522452  0.44210103     1.06530
Mn1026     Mn  0.17710019  0.82528423  0.01779754     1.49930
C1027       C  0.20924128  0.85786485  0.08340550     1.09430
O1028       O  0.29328253  0.82373943  0.48973031    -1.04070
O1029       O  0.13794259  0.70935029  0.49584806    -0.93740
C1030       C  0.29871114  0.83517629  0.46053657     1.20720
O1031       O  0.17039644  0.81371350  0.46571318    -1.04460
O1032       O  0.17971206  0.67715493  0.52470985    -0.91860
O1033       O  0.18460672  0.83739538  0.07177905    -0.91470
O1034       O  0.36537515  0.74892142  0.03148483    -0.91490
Mn1035     Mn  0.22022403  0.68664386  0.48889904     1.47860
O1036       O  0.19200514  0.75960996  0.07131511    -0.79970
C1037       C  0.29768463  0.79453024  0.07982948     1.13770
O1038       O  0.26117478  0.73946450  0.42107811    -0.78700
O1039       O  0.24546494  0.71200264  0.06946619    -0.78310
Mn1040     Mn  0.26749705  0.84560262  0.02604015     1.51060
O1041       O  0.18377489  0.87812956  0.00901536    -0.90670
O1042       O  0.25968129  0.68006840  0.52594326    -0.98190
O1043       O  0.24015974  0.86181809  0.06934426    -0.93200
C1044       C  0.25851526  0.68354839  0.05832007     1.11560
C1045       C  0.29613149  0.59787075  0.10585023    -0.15020
C1046       C  0.30071536  0.61002724  0.14068715     0.07130
C1047       C  0.29682648  0.64709157  0.14612157    -0.15020
C1048       C  0.28465364  0.67064483  0.11870716    -0.15020
C1049       C  0.27602344  0.65792016  0.08488707     0.07130
C1050       C  0.28397267  0.62160176  0.07812326    -0.15020
H1051       H  0.29790132  0.56920251  0.10104368     0.11120
H1052       H  0.29915107  0.65718489  0.17267213     0.11120
H1053       H  0.28005807  0.69873131  0.12473158     0.11120
H1054       H  0.27842883  0.61104410  0.05229366     0.11120
C1055       C  0.20942647  0.94648054  0.12599384    -0.15020
C1056       C  0.19743539  0.93742176  0.16008403     0.07130
C1057       C  0.18667224  0.90172296  0.16905440    -0.15020
C1058       C  0.18743221  0.87529447  0.14353434    -0.15020
C1059       C  0.20150508  0.88422834  0.11001250     0.07130
C1060       C  0.21298319  0.91972025  0.10176664    -0.15020
H1061       H  0.21881470  0.97344256  0.11896652     0.11120
H1062       H  0.17853336  0.89415989  0.19596016     0.11120
H1063       H  0.17951664  0.84784911  0.15053881     0.11120
H1064       H  0.22579981  0.92664158  0.07649821     0.11120
C1065       C  0.19586011  0.84437231  0.37335881    -0.15020
C1066       C  0.18063303  0.85009395  0.40768107     0.07130
C1067       C  0.16629643  0.88515550  0.41249879    -0.15020
C1068       C  0.16871389  0.91300843  0.38532140    -0.15020
C1069       C  0.18568013  0.90729119  0.35197166     0.07130
C1070       C  0.19852100  0.87205920  0.34649232    -0.15020
H1071       H  0.20745944  0.81824522  0.36742467     0.11120
H1072       H  0.15493884  0.89213308  0.43762991     0.11120
H1073       H  0.15822460  0.93964566  0.39100034     0.11120
H1074       H  0.21167071  0.86596321  0.32159358     0.11120
C1075       C  0.25084555  0.60878951  0.40920651    -0.15020
C1076       C  0.26818248  0.60508015  0.37678616     0.07130
C1077       C  0.28253670  0.63604610  0.35887999    -0.15020
C1078       C  0.27922990  0.67054261  0.37388129    -0.15020
C1079       C  0.26205484  0.67372960  0.40703595     0.07130
C1080       C  0.24778732  0.64210187  0.42386827    -0.15020
H1081       H  0.23912676  0.58562686  0.42330966     0.11120
H1082       H  0.29533069  0.63365612  0.33318799     0.11120
H1083       H  0.29048834  0.69404385  0.36015786     0.11120
H1084       H  0.23475613  0.64245477  0.44965452     0.11120
C1085       C  0.39979119  0.61315536  0.24967728    -0.15020
C1086       C  0.39793551  0.65082782  0.25227190     0.07130
C1087       C  0.36341723  0.66620466  0.26036147    -0.15020
C1088       C  0.33233153  0.64518108  0.26601646    -0.15020
C1089       C  0.33422651  0.60758730  0.26426420     0.07130
C1090       C  0.36855714  0.59197877  0.25581368    -0.15020
H1091       H  0.42520344  0.60008663  0.24327228     0.11120
H1092       H  0.36015941  0.69516001  0.26256719     0.11120
H1093       H  0.30685917  0.65845330  0.27181170     0.11120
H1094       H  0.37137201  0.56297134  0.25367827     0.11120
C1095       C  0.33615957  0.86357684  0.23832576    -0.15020
C1096       C  0.37062751  0.87422013  0.22769069     0.07130
C1097       C  0.38102752  0.91046189  0.22976313    -0.15020
C1098       C  0.35784725  0.93565479  0.24357978    -0.15020
C1099       C  0.32363132  0.92509705  0.25466584     0.07130
C1100       C  0.31255520  0.88904855  0.25169312    -0.15020
H1101       H  0.32863259  0.83534385  0.23870603     0.11120
H1102       H  0.40834496  0.91897936  0.22445506     0.11120
H1103       H  0.36672508  0.96329122  0.24568514     0.11120
H1104       H  0.28585430  0.88050220  0.26008905     0.11120
C1105       C  0.11552993  0.67560602  0.20091801    -0.15020
C1106       C  0.09751060  0.67399862  0.23426191     0.07130
C1107       C  0.11021855  0.64887401  0.25941669    -0.15020
C1108       C  0.13796195  0.62476377  0.25087117    -0.15020
C1109       C  0.15296211  0.62196116  0.21670818     0.07130
C1110       C  0.14261170  0.64942134  0.19182712    -0.15020
H1111       H  0.10913858  0.69759965  0.18253798     0.11120
H1112       H  0.09874931  0.64805011  0.28597859     0.11120
H1113       H  0.14753684  0.60715865  0.27124584     0.11120
H1114       H  0.15633968  0.65148259  0.16639290     0.11120
C1115       C  0.08691090  0.87230379  0.17600825    -0.15020
C1116       C  0.07505792  0.84720951  0.20238884     0.07130
C1117       C  0.08500907  0.85371334  0.23766754    -0.15020
C1118       C  0.10051929  0.88553436  0.24755196    -0.15020
C1119       C  0.10853650  0.91262970  0.22234652     0.07130
C1120       C  0.10260563  0.90542349  0.18598394    -0.15020
H1121       H  0.08278953  0.86716125  0.14827626     0.11120
H1122       H  0.08049904  0.83412702  0.25857009     0.11120
H1123       H  0.10609018  0.88881357  0.27541140     0.11120
H1124       H  0.10979214  0.92532098  0.16540900     0.11120
C1125       C  0.39226084  0.80582328  0.11574179    -0.15020
C1126       C  0.39091253  0.78557683  0.14772214     0.07130
C1127       C  0.35771697  0.76957371  0.15821258    -0.15020
C1128       C  0.32683908  0.77356780  0.13721285    -0.15020
C1129       C  0.32816178  0.79394824  0.10528853     0.07130
C1130       C  0.36113831  0.81042915  0.09510156    -0.15020
H1131       H  0.41728817  0.81782752  0.10660702     0.11120
H1132       H  0.35551294  0.75346827  0.18273433     0.11120
H1133       H  0.30223545  0.76015481  0.14561705     0.11120
H1134       H  0.36325791  0.82608915  0.07043265     0.11120
C1135       C  0.06658086  0.74005785  0.08785031    -0.15020
C1136       C  0.07256517  0.71147086  0.11297041     0.07130
C1137       C  0.10607710  0.69370285  0.11288732    -0.15020
C1138       C  0.13538886  0.70967860  0.09478756    -0.15020
C1139       C  0.13041310  0.74184126  0.07410608     0.07130
C1140       C  0.09527554  0.75516972  0.06858487    -0.15020
H1141       H  0.04057273  0.75380945  0.08666216     0.11120
H1142       H  0.11022541  0.66949530  0.12916493     0.11120
H1143       H  0.16196492  0.69736464  0.09745387     0.11120
H1144       H  0.09038923  0.77895903  0.05155704     0.11120
C1145       C  0.09453687  0.67501512  0.37373503    -0.15020
C1146       C  0.08340001  0.70773519  0.35672828     0.07130
C1147       C  0.10808431  0.73564174  0.35149394    -0.15020
C1148       C  0.14183033  0.73287066  0.36723465    -0.15020
C1149       C  0.15007054  0.70333793  0.39061734     0.07130
C1150       C  0.12806772  0.67278894  0.39068326    -0.15020
H1151       H  0.07641671  0.65226267  0.37597448     0.11120
H1152       H  0.10076992  0.76009127  0.33635296     0.11120
H1153       H  0.15918663  0.75626449  0.36549077     0.11120
H1154       H  0.13472769  0.64903503  0.40706839     0.11120
C1155       C  0.36962132  0.73226928  0.34456989    -0.15020
C1156       C  0.38136723  0.76730935  0.33485710     0.07130
C1157       C  0.37518070  0.79523172  0.35794848    -0.15020
C1158       C  0.36144560  0.78770778  0.39165923    -0.15020
C1159       C  0.35562543  0.75182804  0.40421424     0.07130
C1160       C  0.35743479  0.72439715  0.37948258    -0.15020
H1161       H  0.37324521  0.71044618  0.32647087     0.11120
H1162       H  0.38284202  0.82270097  0.35056811     0.11120
H1163       H  0.35616797  0.81044315  0.40780701     0.11120
H1164       H  0.35051849  0.69694767  0.38738338     0.11120
C1165       C  0.31734093  0.89582479  0.47239593    -0.15020
C1166       C  0.32730519  0.86223626  0.45829077     0.07130
C1167       C  0.36023276  0.84742120  0.47072227    -0.15020
C1168       C  0.37312148  0.85622656  0.00384322    -0.15020
C1169       C  0.36681717  0.89131592  0.01525240     0.07130
C1170       C  0.33745723  0.91070857  0.49995131    -0.15020
H1171       H  0.29299961  0.90958663  0.46329820     0.11120
H1172       H  0.37362432  0.82534144  0.45844279     0.11120
H1173       H  0.39639864  0.84093586  0.01383266     0.11120
H1174       H  0.33161557  0.93805619  0.50770649     0.11110
C1175       C  0.43879174  0.65808540  0.00347239    -0.15020
C1176       C  0.42854395  0.62422296  0.01840569     0.07130
C1177       C  0.40354464  0.62340333  0.54651146    -0.15020
C1178       C  0.38708950  0.65524897  0.05763437    -0.15020
C1179       C  0.39354887  0.68873043  0.03967548     0.07130
C1180       C  0.42095788  0.69007736  0.01358793    -0.15020
H1181       H  0.45869633  0.65948758  0.98227130     0.11120
H1182       H  0.39610465  0.59791225  0.55948542     0.11120
H1183       H  0.36609260  0.65308780  0.57778912     0.11120
H1184       H  0.42603444  0.71506553  0.99859050     0.11120
C1185       C  0.09163663  0.89055286  0.02134215    -0.15020
C1186       C  0.08867987  0.91671953  0.04726203     0.07130
C1187       C  0.12137025  0.93320382  0.05683590    -0.15020
C1188       C  0.15526806  0.92577420  0.04034607    -0.15020
C1189       C  0.16180572  0.89726861  0.01444642     0.07130
C1190       C  0.12397077  0.88433276  0.50258091    -0.15020
H1191       H  0.06714689  0.87943676  0.51077921     0.11120
H1192       H  0.11985594  0.95633861  0.07364830     0.11120
H1193       H  0.17711013  0.94375547  0.04558677     0.11120
H1194       H  0.12240614  0.86646152  0.48056912     0.11120
C1195       C  0.12213529  0.58231738  0.01799338    -0.15020
C1196       C  0.10027274  0.58096188  0.48788087     0.07130
C1197       C  0.09475478  0.61225024  0.46637178    -0.15020
C1198       C  0.10754776  0.64513163  0.47667660    -0.15020
C1199       C  0.12882401  0.64701015  0.50704323     0.07130
C1200       C  0.13697143  0.61520372  0.02721252    -0.15020
H1201       H  0.12533368  0.55877551  0.03573982     0.11120
H1202       H  0.07686052  0.61208055  0.44374610     0.11120
H1203       H  0.10122967  0.66907770  0.46039269     0.11120
H1204       H  0.15410236  0.61599511  0.05037931     0.11120
C1205       C  0.34145531  0.48623304  0.44642867    -0.15020
C1206       C  0.37281754  0.96784758  0.43512081     0.07130
C1207       C  0.36980374  0.94221399  0.40883485    -0.15020
C1208       C  0.33686994  0.93794393  0.39164588    -0.15020
C1209       C  0.30657924  0.95946451  0.40028149     0.07130
C1210       C  0.30856990  0.48186403  0.42934576    -0.15020
H1211       H  0.34265341  0.50554667  0.46731266     0.11120
H1212       H  0.39322374  0.92693578  0.40027982     0.11120
H1213       H  0.33601172  0.92047530  0.36918636     0.11120
H1214       H  0.28592224  0.49910433  0.43625923     0.11120
C1215       C  0.07025461  0.56357178  0.33843662    -0.15020
C1216       C  0.07235871  0.55040160  0.37338587     0.07130
C1217       C  0.10409578  0.55582654  0.39273666    -0.15020
C1218       C  0.13410876  0.57185578  0.37660707    -0.15020
C1219       C  0.13396514  0.58010198  0.34003233     0.07130
C1220       C  0.10074268  0.57842169  0.32204076    -0.15020
H1221       H  0.04525402  0.56214743  0.32379196     0.11120
H1222       H  0.10566007  0.54744125  0.42049863     0.11120
H1223       H  0.15910689  0.57241228  0.39138802     0.11120
H1224       H  0.09875975  0.58418286  0.29410270     0.11120
C1225       C  0.06669841  0.57168333  0.15488156    -0.15020
C1226       C  0.06384288  0.53854335  0.13820666     0.07130
C1227       C  0.05897363  0.50704171  0.16015583    -0.15020
C1228       C  0.06070029  0.50818379  0.19741075    -0.15020
C1229       C  0.06956819  0.54037383  0.21362001     0.07130
C1230       C  0.06921776  0.57258129  0.19208433    -0.15020
H1231       H  0.06862365  0.59671896  0.13916798     0.11120
H1232       H  0.05444032  0.98115261  0.14851196     0.11120
H1233       H  0.05947048  0.98307031  0.21302926     0.11120
H1234       H  0.07544613  0.59810036  0.20370466     0.11120
C1235       C  0.39783879  0.47713098  0.13575473    -0.15020
C1236       C  0.39661385  0.47660123  0.09880244     0.07130
C1237       C  0.36235529  0.47739154  0.08202827    -0.15020
C1238       C  0.33023575  0.48116086  0.10145427    -0.15020
C1239       C  0.33151540  0.48334418  0.13829840     0.07130
C1240       C  0.36565040  0.48045347  0.15522910    -0.15020
H1241       H  0.42352643  0.47734292  0.14932774     0.11120
H1242       H  0.36049723  0.47692398  0.05334060     0.11120
H1243       H  0.30467063  0.48318695  0.08767773     0.11120
H1244       H  0.36775073  0.48298280  0.18364589     0.11120
C1245       C  0.40209111  0.62483412  0.41638115    -0.15020
C1246       C  0.40635344  0.59284565  0.39693076     0.07130
C1247       C  0.40157345  0.59590291  0.36043597    -0.15020
C1248       C  0.40753439  0.62944746  0.34371018    -0.15020
C1249       C  0.41825379  0.65934721  0.36338928     0.07130
C1250       C  0.41191340  0.65797826  0.40002420    -0.15020
H1251       H  0.40185646  0.62297653  0.44514111     0.11120
H1252       H  0.40197798  0.57206818  0.34452937     0.11120
H1253       H  0.41089360  0.62991809  0.31549137     0.11120
H1254       H  0.41831465  0.68066967  0.41613895     0.11120
C1255       C  0.00636375  0.87956455  0.39748460    -0.15020
C1256       C  0.03487394  0.90432358  0.40090515     0.07130
C1257       C  0.06435427  0.89872942  0.37678280    -0.15020
C1258       C  0.06394874  0.87087308  0.35024245    -0.15020
C1259       C  0.03399599  0.84725830  0.34635641     0.07130
C1260       C  0.00597206  0.85251081  0.37172145    -0.15020
H1261       H  0.98300243  0.88147205  0.41482075     0.11120
H1262       H  0.08721475  0.91660684  0.37743155     0.11120
H1263       H  0.08663872  0.86871321  0.33222908     0.11120
H1264       H  0.98223329  0.83573276  0.37135761     0.11120
C1265       C  0.01188233  0.89332451  0.12459159    -0.15020
C1266       C  0.98005656  0.88704108  0.09897392     0.07130
C1267       C  0.44575387  0.88668810  0.12373661    -0.15020
C1268       C  0.44518138  0.89639705  0.16021116    -0.15020
C1269       C  0.97662800  0.89988887  0.18138785     0.07130
C1270       C  0.00843379  0.90259744  0.16086887    -0.15020
H1271       H  0.03871100  0.89317674  0.11309899     0.11120
H1272       H  0.42003667  0.88153982  0.11151706     0.11120
H1273       H  0.41875318  0.89919356  0.17154905     0.11120
H1274       H  0.03217535  0.91020550  0.17469218     0.11120
C1275       C  0.99253373  0.62118105  0.10384109    -0.15020
C1276       C  0.47059355  0.59391970  0.11924441     0.07130
C1277       C  0.43776826  0.60373490  0.13492394    -0.15020
C1278       C  0.42877054  0.64033309  0.13749907    -0.15020
C1279       C  0.45233621  0.66725154  0.12375989     0.07130
C1280       C  0.98257683  0.65713750  0.10438029    -0.15020
H1281       H  0.01620497  0.61496374  0.08851358     0.11120
H1282       H  0.41888983  0.58327717  0.14420031     0.11120
H1283       H  0.40497055  0.64775896  0.15261241     0.11120
H1284       H  0.00096137  0.67713494  0.09316539     0.11120
O1285       O  0.03391426  0.56558659  0.91671543    -0.89850
C1286       C  0.47374991  0.55957068  0.60241037     1.10190
O1287       O  0.98828914  0.52001068  0.96104110    -1.37660
O1288       O  0.05098830  0.56417678  0.57963544    -0.91330
O1289       O  0.02014740  0.01463226  0.88873227    -0.92000
O1290       O  0.05081374  0.95506846  0.94416340    -0.80820
O1291       O  0.04116576  0.56978057  0.99424753    -1.02910
C1292       C  0.05661628  0.94137946  0.54190505     1.20230
O1293       O  0.47822171  0.96206353  0.50197919    -1.37800
Mn1294     Mn  0.45358741  0.51049168  0.50442781     1.82050
O1295       O  0.06221297  0.96184924  0.51603225    -0.79900
O1296       O  0.05919796  0.50592094  0.58569632    -0.89290
C1297       C  0.42921483  0.48209926  0.57614329     1.11320
C1298       C  0.06082674  0.53654315  0.59860496     1.06040
O1299       O  0.40876467  0.49841669  0.97533968    -0.80830
O1300       O  0.00279248  0.51705243  0.53250402    -1.34530
O1301       O  0.43676912  0.96218571  0.94068633    -1.00050
C1302       C  0.48620852  0.86997724  0.55392431     1.04760
Mn1303     Mn  0.00793794  0.48724146  0.58345576     1.48570
O1304       O  0.48288401  0.88097550  0.01871944    -0.89240
Mn1305     Mn  0.47431272  0.99108346  0.91581943     1.49560
O1306       O  0.45859013  0.58381230  0.92799775    -0.93120
C1307       C  0.07049888  0.55612956  0.98866448     1.17950
C1308       C  0.43573533  0.56825145  0.90926173     1.10010
Mn1309     Mn  0.02722439  0.98973758  0.98812811     1.80970
O1310       O  0.45891459  0.96623682  0.58078119    -0.98270
Mn1311     Mn  0.00222616  0.57485491  0.95867338     1.49260
C1312       C  0.03963871  0.54258096  0.89352886     1.06530
Mn1313     Mn  0.47554665  0.93165860  0.54516481     1.49930
C1314       C  0.40134151  0.90943511  0.51506342     1.09430
O1315       O  0.49805761  0.94461873  0.93437444    -1.04070
O1316       O  0.98853720  0.53105899  0.61561821    -0.93740
C1317       C  0.02871760  0.93576886  0.92761602     1.20720
O1318       O  0.02700497  0.94320339  0.55871099    -1.04460
O1319       O  0.96828513  0.56210962  0.57020617    -0.91860
O1320       O  0.41901280  0.91822674  0.54188576    -0.91470
O1321       O  0.43884984  0.53523874  0.89990649    -0.91490
Mn1322     Mn  0.01128814  0.57113375  0.53737819     1.47860
O1323       O  0.42315319  0.50004836  0.54795910    -0.79970
C1324       C  0.40811776  0.97634902  0.95071934     1.13770
O1325       O  0.07252497  0.52343696  0.98040359    -0.78700
O1326       O  0.42712492  0.56107917  0.00723454    -0.78310
Mn1327     Mn  0.46387831  0.92282845  0.97051547     1.51060
O1328       O  0.47945319  0.89163562  0.57426171    -0.90670
O1329       O  0.97682094  0.58660531  0.00120049    -0.98190
O1330       O  0.41547013  0.90990364  0.98536061    -0.93200
C1331       C  0.44460785  0.58965602  0.00646726     1.11560
O1332       O  0.03860001  0.68771068  0.82023082    -0.89850
C1333       C  0.45650572  0.69966436  0.64365459     1.10190
O1334       O  0.48547118  0.73675187  0.78305408    -1.37660
O1335       O  0.03323350  0.68722606  0.66032458    -0.91330
O1336       O  0.02831655  0.74015278  0.84836062    -0.92000
O1337       O  0.04750693  0.80025890  0.79703524    -0.80820
O1338       O  0.03441638  0.68124098  0.74246925    -1.02910
C1339       C  0.05275259  0.81374191  0.69748537     1.20230
O1340       O  0.47626728  0.80038845  0.74375612    -1.37800
Mn1341     Mn  0.44876541  0.75290790  0.74233595     1.82050
O1342       O  0.05994627  0.78922984  0.71977738    -0.79900
O1343       O  0.04901013  0.74436284  0.65815934    -0.89290
C1344       C  0.42251330  0.78153306  0.67175182     1.11320
C1345       C  0.05114206  0.71340616  0.64604232     1.06040
O1346       O  0.40419628  0.76145088  0.77591744    -0.80830
O1347       O  0.99454861  0.74039346  0.71142721    -1.34530
O1348       O  0.43608686  0.78848719  0.81286050    -1.00050
C1349       C  0.98235082  0.88627491  0.72153385     1.04760
Mn1350     Mn  0.99986296  0.76809429  0.66061881     1.48570
O1351       O  0.46109688  0.88476338  0.74884223    -0.89240
Mn1352     Mn  0.47785306  0.76266704  0.83167558     1.49560
O1353       O  0.46182109  0.67062216  0.82142878    -0.93120
C1354       C  0.06434793  0.69592566  0.74292164     1.17950
C1355       C  0.44412751  0.68473041  0.84597950     1.10010
Mn1356     Mn  0.02323869  0.76596679  0.75312556     1.80970
O1357       O  0.45304488  0.79389681  0.66484266    -0.98270
Mn1358     Mn  0.99887452  0.67988239  0.78328486     1.49260
C1359       C  0.04747341  0.71197360  0.84140736     1.06530
Mn1360     Mn  0.47665154  0.82927737  0.69493958     1.49930
C1361       C  0.39954853  0.84847060  0.73064561     1.09430
O1362       O  0.49511201  0.81149852  0.81274308    -1.04070
O1363       O  0.97547569  0.72603302  0.63192176    -0.93740
C1364       C  0.02629614  0.81987234  0.81605132     1.20720
O1365       O  0.02399431  0.81188048  0.68008390    -1.04460
O1366       O  0.95136333  0.69502487  0.67608889    -0.91860
O1367       O  0.42347620  0.84804187  0.70658610    -0.91470
O1368       O  0.44855654  0.71745404  0.85494871    -0.91490
Mn1369     Mn  0.99633757  0.68413524  0.70602201     1.47860
O1370       O  0.41589286  0.76761800  0.70181350    -0.79970
C1371       C  0.40804035  0.77318055  0.80636804     1.13770
O1372       O  0.06658412  0.72752797  0.75514877    -0.78700
O1373       O  0.42010907  0.70798167  0.74069691    -0.78310
Mn1374     Mn  0.45345429  0.83203534  0.78375845     1.51060
O1375       O  0.50571539  0.86307847  0.72429538    -0.90670
O1376       O  0.46261836  0.66938475  0.74651712    -0.98190
O1377       O  0.40435929  0.83529231  0.76124986    -0.93200
C1378       C  0.42947189  0.67633574  0.74668423     1.11560
O1379       O  0.29176981  0.55451688  0.84610088    -0.89850
C1380       C  0.29898164  0.49109237  0.66027110     1.10190
O1381       O  0.24141164  0.51243268  0.80142769    -1.37660
O1382       O  0.31231826  0.56286882  0.68644668    -0.91330
O1383       O  0.23301549  0.55631585  0.86248282    -0.92000
O1384       O  0.19127239  0.58324510  0.80728087    -0.80820
O1385       O  0.30704400  0.55136208  0.76898360    -1.02910
C1386       C  0.18435730  0.59517961  0.71332625     1.20230
O1387       O  0.18200804  0.51500090  0.75826806    -1.37800
Mn1388     Mn  0.22479748  0.47943366  0.76023513     1.82060
O1389       O  0.20812318  0.59836559  0.73601031    -0.79900
O1390       O  0.25707392  0.58457290  0.67652578    -0.89290
C1391       C  0.20179869  0.96349031  0.68739798     1.11320
C1392       C  0.29040456  0.58505464  0.67042109     1.06040
O1393       O  0.20557433  0.93437447  0.79395127    -0.80830
O1394       O  0.24877769  0.52424244  0.72930487    -1.34530
O1395       O  0.18082445  0.96870969  0.82994437    -1.00050
C1396       C  0.09592085  0.53868645  0.74331908     1.04760
Mn1397     Mn  0.22820428  0.53819672  0.67779580     1.48570
O1398       O  0.09577580  0.51700451  0.77031107    -0.89240
Mn1399     Mn  0.20908096  0.50899350  0.84778067     1.49560
O1400       O  0.29307138  0.47022595  0.84117221    -0.93120
C1401       C  0.30159502  0.58357938  0.76978781     1.17950
C1402       C  0.28045172  0.46920776  0.87221158     1.10010
Mn1403     Mn  0.22387028  0.55587120  0.76880625     1.80970
O1404       O  0.19568470  0.49614940  0.68128175    -0.98270
Mn1405     Mn  0.29769626  0.51469130  0.80728465     1.49260
C1406       C  0.26448102  0.56988959  0.86045289     1.06530
Mn1407     Mn  0.15810714  0.52235761  0.70775821     1.49930
C1408       C  0.12389429  0.94702073  0.73514852     1.09430
O1409       O  0.16786131  0.53296903  0.82325175    -1.04070
O1410       O  0.27232179  0.51104513  0.64945511    -0.93740
C1411       C  0.16523060  0.56555603  0.82137014     1.20720
O1412       O  0.18468422  0.56660481  0.69628823    -1.04460
O1413       O  0.30139050  0.48173060  0.69228683    -0.91860
O1414       O  0.12884510  0.97323448  0.71273601    -0.91470
O1415       O  0.24876720  0.98090890  0.87926667    -0.91490
Mn1416     Mn  0.30541239  0.52084427  0.72831687     1.47860
O1417       O  0.20952112  0.95121536  0.71797273    -0.79970
C1418       C  0.19140427  0.93819417  0.82428578     1.13770
O1419       O  0.26891635  0.59355345  0.77510286    -0.78700
O1420       O  0.26551997  0.94418419  0.76196717    -0.78310
Mn1421     Mn  0.14434707  0.99453773  0.79731929     1.51060
O1422       O  0.12469843  0.55319494  0.73612131    -0.90670
O1423       O  0.30558715  0.48397724  0.76698160    -0.98190
O1424       O  0.13120465  0.94919139  0.76826997    -0.93200
C1425       C  0.29750127  0.45237114  0.76365946     1.11560
O1426       O  0.33660404  0.71400175  0.95467358    -0.89850
C1427       C  0.14859063  0.68025489  0.01199144     1.10190
O1428       O  0.28378254  0.75291762  0.00468669    -1.37660
O1429       O  0.18378571  0.68685397  0.94368659    -0.91330
O1430       O  0.34338529  0.77279472  0.96064472    -0.92000
O1431       O  0.28521764  0.81589129  0.93750968    -0.80820
O1432       O  0.26128185  0.69848972  0.96087542    -1.02910
C1433       C  0.18831082  0.82116351  0.93752587     1.20230
O1434       O  0.23156465  0.80762864  0.51158574    -1.37800
Mn1435     Mn  0.23877790  0.75916664  0.54039803     1.82050
O1436       O  0.21409480  0.80052713  0.93012065    -0.79900
O1437       O  0.16743599  0.74423521  0.93131725    -0.89290
C1438       C  0.16135348  0.76039489  0.55697177     1.11320
C1439       C  0.16985598  0.71157361  0.92297324     1.06040
O1440       O  0.26896723  0.77681981  0.58458996    -0.80830
O1441       O  0.21273607  0.74213262  0.99355029    -1.34530
O1442       O  0.30219070  0.80999940  0.55120832    -1.00050
C1443       C  0.20317610  0.89698353  0.99205969     1.04760
Mn1444     Mn  0.15982702  0.76058713  0.98145300     1.48570
O1445       O  0.23633543  0.88549112  0.99410699    -0.89240
Mn1446     Mn  0.32599448  0.78772345  0.50988733     1.49560
O1447       O  0.33254947  0.69974281  0.03717958    -0.93120
C1448       C  0.26235939  0.70592436  0.92962045     1.17950
C1449       C  0.36265000  0.71466652  0.53728107     1.10010
Mn1450     Mn  0.24893838  0.77632078  0.96475049     1.80970
O1451       O  0.15731649  0.77761894  0.52874608    -0.98270
Mn1452     Mn  0.29846338  0.69935629  0.99507784     1.49260
C1453       C  0.34502718  0.74522375  0.94210108     1.06530
Mn1454     Mn  0.17709875  0.82528379  0.51779748     1.49930
C1455       C  0.20923989  0.85786361  0.58340705     1.09430
O1456       O  0.29328304  0.82373890  0.98972899    -1.04070
O1457       O  0.13794289  0.70935111  0.99584885    -0.93740
C1458       C  0.29871116  0.83517514  0.96053500     1.20720
O1459       O  0.17039843  0.81371460  0.96571284    -1.04460
O1460       O  0.17971173  0.67715495  0.02471093    -0.91860
O1461       O  0.18460463  0.83739582  0.57177910    -0.91470
O1462       O  0.36537385  0.74892044  0.53148525    -0.91490
Mn1463     Mn  0.22022426  0.68664330  0.98890048     1.47860
O1464       O  0.19200414  0.75960923  0.57131473    -0.79970
C1465       C  0.29768363  0.79452787  0.57983010     1.13770
O1466       O  0.26117582  0.73946331  0.92107973    -0.78700
O1467       O  0.24546323  0.71200176  0.56946485    -0.78310
Mn1468     Mn  0.26749660  0.84560186  0.52604270     1.51060
O1469       O  0.18377347  0.87812871  0.50901390    -0.90670
O1470       O  0.25968177  0.68006844  0.02594477    -0.98190
O1471       O  0.24015934  0.86181510  0.56934753    -0.93200
C1472       C  0.25851451  0.68354804  0.55831860     1.11560
C1473       C  0.29613130  0.59787102  0.60584953    -0.15020
C1474       C  0.30071586  0.61002812  0.64068615     0.07130
C1475       C  0.29682720  0.64709258  0.64611996    -0.15020
C1476       C  0.28465398  0.67064539  0.61870534    -0.15020
C1477       C  0.27602320  0.65792016  0.58488561     0.07130
C1478       C  0.28397214  0.62160159  0.57812233    -0.15020
H1479       H  0.29790093  0.56920267  0.60104346     0.11120
H1480       H  0.29915226  0.65718639  0.67267028     0.11120
H1481       H  0.28005858  0.69873199  0.62472933     0.11120
H1482       H  0.27842777  0.61104349  0.55229304     0.11120
C1483       C  0.20942853  0.94647950  0.62599506    -0.15020
C1484       C  0.19743350  0.93742214  0.66008420     0.07130
C1485       C  0.18666578  0.90172465  0.66905373    -0.15020
C1486       C  0.18742619  0.87529573  0.64353401    -0.15020
C1487       C  0.20150384  0.88422777  0.61001364     0.07130
C1488       C  0.21298566  0.91971864  0.60176858    -0.15020
H1489       H  0.21881961  0.97344061  0.61896833     0.11120
H1490       H  0.17852466  0.89416245  0.69595893     0.11120
H1491       H  0.17950749  0.84785121  0.65053797     0.11120
H1492       H  0.22580466  0.92663891  0.57650101     0.11120
C1493       C  0.19589364  0.84438140  0.87336631    -0.15020
C1494       C  0.18064618  0.85009549  0.90768174     0.07130
C1495       C  0.16628903  0.88515004  0.91249305    -0.15020
C1496       C  0.16870411  0.91300346  0.88531553    -0.15020
C1497       C  0.18568784  0.90729313  0.85197268     0.07130
C1498       C  0.19855175  0.87206835  0.84650047    -0.15020
H1499       H  0.20750926  0.81826031  0.86743612     0.11120
H1500       H  0.15491536  0.89212194  0.93761924     0.11120
H1501       H  0.15819758  0.93963560  0.89098869     0.11120
H1502       H  0.21171682  0.86597836  0.82160777     0.11120
C1503       C  0.25084362  0.60879010  0.90920628    -0.15020
C1504       C  0.26818145  0.60508128  0.87678636     0.07130
C1505       C  0.28253662  0.63604707  0.85888092    -0.15020
C1506       C  0.27922994  0.67054316  0.87388266    -0.15020
C1507       C  0.26205431  0.67372954  0.90703702     0.07130
C1508       C  0.24778569  0.64210203  0.92386856    -0.15020
H1509       H  0.23912431  0.58562736  0.92330883     0.11120
H1510       H  0.29533141  0.63365724  0.83318926     0.11120
H1511       H  0.29048910  0.69404448  0.86016000     0.11120
H1512       H  0.23475434  0.64245464  0.94965473     0.11120
C1513       C  0.39979071  0.61315604  0.74967466    -0.15020
C1514       C  0.39793618  0.65082824  0.75227133     0.07130
C1515       C  0.36341859  0.66620572  0.76036264    -0.15020
C1516       C  0.33233242  0.64518290  0.76601742    -0.15020
C1517       C  0.33422633  0.60758932  0.76426321     0.07130
C1518       C  0.36855622  0.59198019  0.75581086    -0.15020
H1519       H  0.42520235  0.60008696  0.74326807     0.11120
H1520       H  0.36016171  0.69516099  0.76256980     0.11120
H1521       H  0.30686063  0.65845552  0.77181413     0.11120
H1522       H  0.37137017  0.56297286  0.75367384     0.11120
C1523       C  0.33615941  0.86357658  0.73833080    -0.15020
C1524       C  0.37062651  0.87421907  0.72769207     0.07130
C1525       C  0.38102686  0.91046113  0.72976105    -0.15020
C1526       C  0.35784759  0.93565529  0.74357706    -0.15020
C1527       C  0.32363257  0.92509829  0.75466665     0.07130
C1528       C  0.31255630  0.88904934  0.75169817    -0.15020
H1529       H  0.32863236  0.83534353  0.73871395     0.11120
H1530       H  0.40834404  0.91897818  0.72445104     0.11120
H1531       H  0.36672553  0.96329201  0.74567953     0.11120
H1532       H  0.28585612  0.88050358  0.76009709     0.11120
C1533       C  0.11552961  0.67560617  0.70091924    -0.15020
C1534       C  0.09751002  0.67399763  0.73426308     0.07130
C1535       C  0.11021756  0.64887175  0.75941685    -0.15020
C1536       C  0.13796085  0.62476157  0.75087057    -0.15020
C1537       C  0.15296158  0.62196050  0.71670763     0.07130
C1538       C  0.14261156  0.64942185  0.69182764    -0.15020
H1539       H  0.10913854  0.69760040  0.68253978     0.11120
H1540       H  0.09874808  0.64804682  0.78597865     0.11120
H1541       H  0.14753526  0.60715545  0.77124422     0.11120
H1542       H  0.15634007  0.65148434  0.66639376     0.11120
C1543       C  0.08689959  0.87230598  0.67601510    -0.15020
C1544       C  0.07507163  0.84719830  0.70239392     0.07130
C1545       C  0.08505681  0.85368458  0.73766782    -0.15020
C1546       C  0.10056357  0.88550847  0.74755332    -0.15020
C1547       C  0.10854518  0.91262096  0.72235255     0.07130
C1548       C  0.10259246  0.90542578  0.68599157    -0.15020
H1549       H  0.08275985  0.86717278  0.64828422     0.11120
H1550       H  0.08057964  0.83408053  0.75856583     0.11120
H1551       H  0.10616247  0.88877555  0.77540898     0.11120
H1552       H  0.10975822  0.92533308  0.66541837     0.11120
C1553       C  0.39225980  0.80582146  0.61574196    -0.15020
C1554       C  0.39091187  0.78557504  0.64772230     0.07130
C1555       C  0.35771653  0.76957158  0.65821298    -0.15020
C1556       C  0.32683844  0.77356534  0.63721342    -0.15020
C1557       C  0.32816082  0.79394578  0.60528909     0.07130
C1558       C  0.36113714  0.81042701  0.59510197    -0.15020
H1559       H  0.41728694  0.81782602  0.60660705     0.11120
H1560       H  0.35551284  0.75346618  0.68273480     0.11120
H1561       H  0.30223495  0.76015223  0.64561779     0.11120
H1562       H  0.36325645  0.82608712  0.57043315     0.11120
C1563       C  0.06658013  0.74005684  0.58785163    -0.15020
C1564       C  0.07256480  0.71146969  0.61297147     0.07130
C1565       C  0.10607682  0.69370188  0.61288800    -0.15020
C1566       C  0.13538827  0.70967763  0.59478770    -0.15020
C1567       C  0.13041218  0.74184030  0.57410630     0.07130
C1568       C  0.09527452  0.75516879  0.56858575    -0.15020
H1569       H  0.04057199  0.75380846  0.58666397     0.11120
H1570       H  0.11022546  0.66949452  0.62916580     0.11120
H1571       H  0.16196439  0.69736373  0.59745365     0.11120
H1572       H  0.09038795  0.77895819  0.55155811     0.11120
C1573       C  0.09453534  0.67501402  0.87373750    -0.15020
C1574       C  0.08339856  0.70773384  0.85673021     0.07130
C1575       C  0.10808284  0.73564032  0.85149551    -0.15020
C1576       C  0.14182885  0.73286949  0.86723621    -0.15020
C1577       C  0.15006921  0.70333703  0.89061919     0.07130
C1578       C  0.12806624  0.67278809  0.89068575    -0.15020
H1579       H  0.07641513  0.65226163  0.87597731     0.11120
H1580       H  0.10076840  0.76008966  0.83635417     0.11120
H1581       H  0.15918518  0.75626330  0.86549187     0.11120
H1582       H  0.13472628  0.64903439  0.90707114     0.11120
C1583       C  0.36962237  0.73226713  0.84457033    -0.15020
C1584       C  0.38136709  0.76730746  0.83485688     0.07130
C1585       C  0.37517871  0.79523025  0.85794733    -0.15020
C1586       C  0.36144313  0.78770657  0.89165798    -0.15020
C1587       C  0.35562487  0.75182680  0.90421399     0.07130
C1588       C  0.35743574  0.72439533  0.87948305    -0.15020
H1589       H  0.37324726  0.71044375  0.82647184     0.11120
H1590       H  0.38283881  0.82269970  0.85056633     0.11120
H1591       H  0.35616363  0.81044217  0.90780492     0.11120
H1592       H  0.35052044  0.69694574  0.88738443     0.11120
C1593       C  0.31734005  0.89582387  0.97239401    -0.15020
C1594       C  0.32730462  0.86223568  0.95828822     0.07130
C1595       C  0.36023273  0.84742119  0.97071886    -0.15020
C1596       C  0.37312137  0.85622704  0.50384650    -0.15020
C1597       C  0.36681776  0.89131680  0.51525471     0.07130
C1598       C  0.33745617  0.91070741  0.99994966    -0.15020
H1599       H  0.29299856  0.90958557  0.96329658     0.11120
H1600       H  0.37362448  0.82534188  0.95843869     0.11120
H1601       H  0.39639815  0.84093608  0.51383645     0.11120
H1602       H  0.33161406  0.93805471  0.00770561     0.11110
C1603       C  0.43879220  0.65808471  0.50347686    -0.15020
C1604       C  0.42854343  0.62422221  0.51840931     0.07130
C1605       C  0.40354641  0.62340414  0.04650892    -0.15020
C1606       C  0.38708745  0.65524822  0.55763645    -0.15020
C1607       C  0.39354774  0.68872975  0.53967799     0.07130
C1608       C  0.42095810  0.69007671  0.51359185    -0.15020
H1609       H  0.45869780  0.65948695  0.48227670     0.11120
H1610       H  0.39610716  0.59791310  0.05948343     0.11120
H1611       H  0.36609563  0.65308855  0.07778803     0.11120
H1612       H  0.42603551  0.71506494  0.49859483     0.11120
C1613       C  0.09163541  0.89055353  0.52133927    -0.15020
C1614       C  0.08867800  0.91671661  0.54726267     0.07130
C1615       C  0.12136830  0.93319864  0.55684027    -0.15020
C1616       C  0.15526673  0.92577008  0.54035111    -0.15020
C1617       C  0.16180475  0.89726867  0.51444754     0.07130
C1618       C  0.12397157  0.88432926  0.00258397    -0.15020
H1619       H  0.06714788  0.87943393  0.01078481     0.11120
H1620       H  0.11985379  0.95633115  0.57365562     0.11120
H1621       H  0.17710889  0.94375004  0.54559502     0.11120
H1622       H  0.12240654  0.86645361  0.98057580     0.11120
C1623       C  0.12213593  0.58231711  0.51799476    -0.15020
C1624       C  0.10027074  0.58096311  0.98788037     0.07130
C1625       C  0.09475155  0.61225235  0.96637277    -0.15020
C1626       C  0.10754521  0.64513340  0.97667807    -0.15020
C1627       C  0.12882314  0.64701087  0.00704370     0.07130
C1628       C  0.13697159  0.61520376  0.52721345    -0.15020
H1629       H  0.12533339  0.55877586  0.53574219     0.11120
H1630       H  0.07685627  0.61208339  0.94374783     0.11120
H1631       H  0.10122645  0.66907999  0.96039516     0.11120
H1632       H  0.15410139  0.61599605  0.55038098     0.11120
C1633       C  0.34145429  0.48622984  0.94642976    -0.15020
C1634       C  0.37281762  0.96784623  0.93511993     0.07130
C1635       C  0.36980403  0.94221250  0.90883408    -0.15020
C1636       C  0.33687018  0.93794203  0.89164539    -0.15020
C1637       C  0.30657945  0.95946252  0.90028111     0.07130
C1638       C  0.30856858  0.48186026  0.92934770    -0.15020
H1639       H  0.34265266  0.50554392  0.96731333     0.11120
H1640       H  0.39322425  0.92693484  0.90027868     0.11120
H1641       H  0.33601212  0.92047382  0.86918553     0.11120
H1642       H  0.28592115  0.49910092  0.93626108     0.11120
C1643       C  0.07025372  0.56357060  0.83843633    -0.15020
C1644       C  0.07235729  0.55040151  0.87338594     0.07130
C1645       C  0.10409426  0.55582666  0.89273684    -0.15020
C1646       C  0.13410768  0.57185495  0.87660705    -0.15020
C1647       C  0.13396436  0.58010078  0.84003222     0.07130
C1648       C  0.10074206  0.57841987  0.82204040    -0.15020
H1649       H  0.04525332  0.56214587  0.82379142     0.11120
H1650       H  0.10565825  0.54744204  0.92049898     0.11120
H1651       H  0.15910571  0.57241149  0.89138816     0.11120
H1652       H  0.09875931  0.58418026  0.79410224     0.11120
C1653       C  0.06669602  0.57168348  0.65488324    -0.15020
C1654       C  0.06384228  0.53854376  0.63820754     0.07130
C1655       C  0.05897441  0.50704134  0.66015589    -0.15020
C1656       C  0.06070097  0.50818257  0.69741081    -0.15020
C1657       C  0.06956764  0.54037255  0.71362078     0.07130
C1658       C  0.06921539  0.57258060  0.69208604    -0.15020
H1659       H  0.06861990  0.59671961  0.63917027     0.11120
H1660       H  0.05444103  0.98115119  0.64851278     0.11120
H1661       H  0.05947220  0.98306858  0.71303001     0.11120
H1662       H  0.07544277  0.59809960  0.70370701     0.11120
C1663       C  0.39784494  0.47714483  0.63575903    -0.15020
C1664       C  0.39661981  0.47659787  0.59880754     0.07130
C1665       C  0.36236122  0.47737572  0.58203389    -0.15020
C1666       C  0.33024113  0.48114824  0.60145860    -0.15020
C1667       C  0.33152073  0.48334806  0.63830122     0.07130
C1668       C  0.36565621  0.48047111  0.65523226    -0.15020
H1669       H  0.42353262  0.47736735  0.64933122     0.11120
H1670       H  0.36050362  0.47689649  0.55334686     0.11120
H1671       H  0.30467551  0.48316321  0.58768205     0.11120
H1672       H  0.36775594  0.48301311  0.68364766     0.11120
C1673       C  0.40209125  0.62483090  0.91637881    -0.15020
C1674       C  0.40635408  0.59284262  0.89692824     0.07130
C1675       C  0.40157483  0.59590015  0.86043339    -0.15020
C1676       C  0.40753640  0.62944473  0.84370797    -0.15020
C1677       C  0.41825505  0.65934445  0.86338756     0.07130
C1678       C  0.41191387  0.65797517  0.90002235    -0.15020
H1679       H  0.40185596  0.62297304  0.94513876     0.11120
H1680       H  0.40197978  0.57206553  0.84452664     0.11120
H1681       H  0.41089662  0.62991534  0.81548926     0.11120
H1682       H  0.41831463  0.68066648  0.91613742     0.11120
C1683       C  0.00636659  0.87956289  0.89748717    -0.15020
C1684       C  0.03487403  0.90432579  0.90090386     0.07130
C1685       C  0.06435150  0.89873616  0.87677716    -0.15020
C1686       C  0.06394584  0.87088032  0.85023645    -0.15020
C1687       C  0.03399607  0.84726105  0.84635472     0.07130
C1688       C  0.00597498  0.85250918  0.87172385    -0.15020
H1689       H  0.98300740  0.88146734  0.91482651     0.11120
H1690       H  0.08720925  0.91661729  0.87742235     0.11120
H1691       H  0.08663278  0.86872491  0.83221885     0.11120
H1692       H  0.98223845  0.83572776  0.87136302     0.11120
C1693       C  0.01188063  0.89333140  0.62459142    -0.15020
C1694       C  0.98005472  0.88704253  0.59897542     0.07130
C1695       C  0.44575449  0.88668645  0.62373544    -0.15020
C1696       C  0.44518109  0.89639510  0.66021008    -0.15020
C1697       C  0.97662861  0.89988989  0.68138955     0.07130
C1698       C  0.00843261  0.90260358  0.66086899    -0.15020
H1699       H  0.03870826  0.89318912  0.61309659     0.11120
H1700       H  0.42003758  0.88153844  0.61151519     0.11120
H1701       H  0.41875251  0.89919117  0.67154715     0.11120
H1702       H  0.03217282  0.91021761  0.67469076     0.11120
C1703       C  0.99253011  0.62118391  0.60383345    -0.15020
C1704       C  0.47059671  0.59391816  0.61924770     0.07130
C1705       C  0.43777047  0.60373372  0.63492523    -0.15020
C1706       C  0.42877233  0.64033202  0.63749900    -0.15020
C1707       C  0.45233831  0.66725029  0.62375999     0.07130
C1708       C  0.98257378  0.65714043  0.60437606    -0.15020
H1709       H  0.01619904  0.61496686  0.58850213     0.11120
H1710       H  0.41889157  0.58327614  0.64420094     0.11120
H1711       H  0.40497152  0.64775820  0.65261094     0.11120
H1712       H  0.00095711  0.67713847  0.59316016     0.11120
O1713       O  0.53391664  0.06558678  0.41671725    -0.89850
C1714       C  0.97375004  0.05957000  0.10241187     1.10190
O1715       O  0.48829094  0.02001183  0.46104214    -1.37660
O1716       O  0.55099103  0.06417302  0.07963459    -0.91330
O1717       O  0.52014712  0.51463220  0.38873357    -0.92000
O1718       O  0.55081558  0.45506984  0.44416399    -0.80820
O1719       O  0.54116956  0.06977800  0.49424920    -1.02910
C1720       C  0.55661832  0.44138315  0.04190529     1.20230
O1721       O  0.97822216  0.46206259  0.00197926    -1.37800
Mn1722     Mn  0.95358684  0.01049342  0.00442585     1.82050
O1723       O  0.56221380  0.46185218  0.01603168    -0.79900
O1724       O  0.55919607  0.00591655  0.08569716    -0.89290
C1725       C  0.92921032  0.98210130  0.07613975     1.11320
C1726       C  0.56082678  0.03653905  0.09860507     1.06040
O1727       O  0.90876560  0.99841947  0.47533941    -0.80830
O1728       O  0.50279186  0.01705200  0.03250338    -1.34530
O1729       O  0.93677030  0.46218233  0.44068782    -1.00050
C1730       C  0.98621453  0.36997724  0.05392536     1.04760
Mn1731     Mn  0.50793513  0.98723961  0.08345459     1.48570
O1732       O  0.98289004  0.38097490  0.51872154    -0.89240
Mn1733     Mn  0.97431352  0.49108146  0.41582098     1.49560
O1734       O  0.95859321  0.08381437  0.42800087    -0.93120
C1735       C  0.57050217  0.05612643  0.48866525     1.17950
C1736       C  0.93573791  0.06825461  0.40926451     1.10010
Mn1737     Mn  0.52722568  0.48973890  0.48812862     1.80970
O1738       O  0.95891566  0.46623678  0.08078133    -0.98270
Mn1739     Mn  0.50222964  0.07485544  0.45867591     1.49260
C1740       C  0.53964017  0.04258185  0.39352984     1.06530
Mn1741     Mn  0.97554928  0.43165846  0.04516567     1.49930
C1742       C  0.90134462  0.40943036  0.01506554     1.09430
O1743       O  0.99806052  0.44461848  0.43437767    -1.04070
O1744       O  0.48853650  0.03105653  0.11561791    -0.93740
C1745       C  0.52871951  0.43576925  0.42761763     1.20720
O1746       O  0.52700722  0.44320672  0.05871168    -1.04460
O1747       O  0.46828771  0.06211441  0.07020804    -0.91860
O1748       O  0.91901588  0.41822355  0.04188742    -0.91470
O1749       O  0.93885172  0.03524229  0.39990802    -0.91490
Mn1750     Mn  0.51129059  0.07113283  0.03737828     1.47860
O1751       O  0.92315108  0.00005174  0.04795598    -0.79970
C1752       C  0.90811857  0.47634464  0.45072133     1.13770
O1753       O  0.57252709  0.02343390  0.48040416    -0.78700
O1754       O  0.92712776  0.06107988  0.50723624    -0.78310
Mn1755     Mn  0.96388132  0.42282667  0.47051756     1.51060
O1756       O  0.97945942  0.39163610  0.07426279    -0.90670
O1757       O  0.47682538  0.08660626  0.50120390    -0.98190
O1758       O  0.91547435  0.40989971  0.48536473    -0.93200
C1759       C  0.94461139  0.08965619  0.50647061     1.11560
O1760       O  0.53860133  0.18771275  0.32023214    -0.89850
C1761       C  0.95650519  0.19966215  0.14365639     1.10190
O1762       O  0.98547216  0.23675195  0.28305508    -1.37660
O1763       O  0.53323375  0.18722663  0.16032707    -0.91330
O1764       O  0.52831861  0.24015496  0.34836189    -0.92000
O1765       O  0.54750764  0.30025271  0.29704241    -0.80820
O1766       O  0.53441675  0.18124205  0.24247113    -1.02910
C1767       C  0.55274907  0.31374637  0.19748221     1.20230
O1768       O  0.97626614  0.30038853  0.24375758    -1.37800
Mn1769     Mn  0.94876515  0.25290736  0.24233786     1.82050
O1770       O  0.55994600  0.28923789  0.21977815    -0.79900
O1771       O  0.54900855  0.24436402  0.15815962    -0.89290
C1772       C  0.92251073  0.28153037  0.17175356     1.11320
C1773       C  0.55114159  0.21340680  0.14604392     1.06040
O1774       O  0.90419690  0.26145054  0.27592016    -0.80830
O1775       O  0.49454823  0.24039440  0.21142856    -1.34530
O1776       O  0.93608809  0.28848849  0.31286157    -1.00050
C1777       C  0.48234884  0.38627558  0.22153528     1.04760
Mn1778     Mn  0.49986060  0.26809372  0.16061947     1.48570
O1779       O  0.96109380  0.38476588  0.24884309    -0.89240
Mn1780     Mn  0.97785434  0.26266839  0.33167638     1.49560
O1781       O  0.96182283  0.17062357  0.32143155    -0.93120
C1782       C  0.56434838  0.19592674  0.24292255     1.17950
C1783       C  0.94412953  0.18473266  0.34598212     1.10010
Mn1784     Mn  0.52323926  0.26596808  0.25312686     1.80970
O1785       O  0.95304181  0.29389437  0.16484354    -0.98270
Mn1786     Mn  0.49887530  0.17988360  0.28328711     1.49260
C1787       C  0.54747533  0.21197574  0.34140832     1.06530
Mn1788     Mn  0.97664708  0.32927568  0.19493993     1.49930
C1789       C  0.89954650  0.34847020  0.23064713     1.09430
O1790       O  0.99511243  0.31149936  0.31274357    -1.04070
O1791       O  0.47547442  0.22603149  0.13192352    -0.93740
C1792       C  0.52629760  0.31987121  0.31605436     1.20720
O1793       O  0.52398990  0.31188052  0.18008326    -1.04460
O1794       O  0.45136276  0.19502361  0.17609116    -0.91860
O1795       O  0.92347265  0.34804077  0.20658628    -0.91470
O1796       O  0.94855861  0.21745638  0.35495056    -0.91490
Mn1797     Mn  0.49633756  0.18413569  0.20602432     1.47860
O1798       O  0.91589097  0.26761626  0.20181583    -0.79970
C1799       C  0.90804153  0.27318157  0.30637012     1.13770
O1800       O  0.56658490  0.22752965  0.25514804    -0.78700
O1801       O  0.92010928  0.20798031  0.24069999    -0.78310
Mn1802     Mn  0.95345428  0.33203702  0.28375944     1.51060
O1803       O  0.00570790  0.36307486  0.22429763    -0.90670
O1804       O  0.96261921  0.16938413  0.24651946    -0.98190
O1805       O  0.90435888  0.33529312  0.26125168    -0.93200
C1806       C  0.92947256  0.17633438  0.24668684     1.11560
O1807       O  0.79177009  0.05450863  0.34610327    -0.89850
C1808       C  0.79897721  0.99109075  0.16026960     1.10190
O1809       O  0.74140951  0.01242964  0.30142746    -1.37660
O1810       O  0.81231684  0.06286606  0.18644874    -0.91330
O1811       O  0.73301503  0.05631515  0.36248154    -0.92000
O1812       O  0.69127285  0.08324404  0.30728110    -0.80820
O1813       O  0.80704557  0.05135697  0.26898536    -1.02910
C1814       C  0.68435552  0.09517818  0.21332776     1.20230
O1815       O  0.68200536  0.01499897  0.25826987    -1.37800
Mn1816     Mn  0.72479385  0.97943051  0.26023502     1.82060
O1817       O  0.70812254  0.09836364  0.23601087    -0.79900
O1818       O  0.75707250  0.08457077  0.17652662    -0.89290
C1819       C  0.70180127  0.46349041  0.18739737     1.11320
C1820       C  0.79040359  0.08505231  0.17042319     1.06040
O1821       O  0.70557567  0.43437348  0.29394997    -0.80830
O1822       O  0.74877525  0.02423946  0.22930513    -1.34530
O1823       O  0.68082558  0.46870840  0.32994278    -1.00050
C1824       C  0.59591851  0.03868579  0.24332174     1.04760
Mn1825     Mn  0.72820071  0.03819532  0.17779673     1.48570
O1826       O  0.59577235  0.01700333  0.27031328    -0.89240
Mn1827     Mn  0.70907926  0.00899289  0.34778109     1.49560
O1828       O  0.79305874  0.97021606  0.34116767    -0.93120
C1829       C  0.80159648  0.08357447  0.26978998     1.17950
C1830       C  0.78044787  0.96920658  0.37221020     1.10010
Mn1831     Mn  0.72386936  0.05586865  0.26880662     1.80970
O1832       O  0.69567952  0.99614905  0.18128335    -0.98270
Mn1833     Mn  0.79769386  0.01468414  0.30728457     1.49260
C1834       C  0.76448218  0.06988526  0.36045318     1.06530
Mn1835     Mn  0.65810272  0.02235550  0.20776171     1.49930
C1836       C  0.62389465  0.44702470  0.23514295     1.09430
O1837       O  0.66786022  0.03296887  0.32325181    -1.04070
O1838       O  0.77231721  0.01104389  0.14945471    -0.93740
C1839       C  0.66523033  0.06555591  0.32137002     1.20720
O1840       O  0.68468076  0.06660309  0.19629024    -1.04460
O1841       O  0.80138686  0.98172847  0.19228516    -0.91860
O1842       O  0.62884659  0.47323818  0.21273123    -0.91470
O1843       O  0.74876876  0.48090615  0.37926581    -0.91490
Mn1844     Mn  0.80541029  0.02084048  0.22831696     1.47860
O1845       O  0.70952364  0.45121601  0.21797230    -0.79970
C1846       C  0.69140514  0.43819274  0.32428429     1.13770
O1847       O  0.76891744  0.09354887  0.27510331    -0.78700
O1848       O  0.76552151  0.44418560  0.26196813    -0.78310
Mn1849     Mn  0.64434845  0.49453740  0.29731749     1.51060
O1850       O  0.62469654  0.05319395  0.23612618    -0.90670
O1851       O  0.80558306  0.98397212  0.26697963    -0.98190
O1852       O  0.63120658  0.44919332  0.26826451    -0.93200
C1853       C  0.79749767  0.95236622  0.26365523     1.11560
O1854       O  0.83660670  0.21399870  0.45467468    -0.89850
C1855       C  0.64859267  0.18025259  0.51198870     1.10190
O1856       O  0.78378403  0.25291428  0.50468720    -1.37660
O1857       O  0.68378893  0.18685210  0.44368403    -0.91330
O1858       O  0.84338861  0.27279109  0.46064839    -0.92000
O1859       O  0.78522304  0.31588897  0.43751092    -0.80820
O1860       O  0.76128436  0.19848801  0.46087466    -1.02910
C1861       C  0.68831295  0.32116222  0.43752435     1.20230
O1862       O  0.73156511  0.30762463  0.01158674    -1.37800
Mn1863     Mn  0.73877861  0.25916340  0.04039989     1.82050
O1864       O  0.71409912  0.30052816  0.43011941    -0.79900
O1865       O  0.66744028  0.24423364  0.43131483    -0.89290
C1866       C  0.66135365  0.26039155  0.05697147     1.11320
C1867       C  0.66985991  0.21157209  0.42297059     1.06040
O1868       O  0.76896595  0.27681869  0.08459172    -0.80830
O1869       O  0.71273796  0.24213054  0.49354850    -1.34530
O1870       O  0.80218962  0.30999897  0.05121040    -1.00050
C1871       C  0.70317978  0.39698130  0.49205918     1.04760
Mn1872     Mn  0.65982925  0.26058492  0.48145059     1.48570
O1873       O  0.73633893  0.38548852  0.49410732    -0.89240
Mn1874     Mn  0.82599498  0.28772163  0.00989056     1.49560
O1875       O  0.83255122  0.19973732  0.53717961    -0.93120
C1876       C  0.76236289  0.20592191  0.42961963     1.17950
C1877       C  0.86265206  0.21466616  0.03728494     1.10010
Mn1878     Mn  0.74894142  0.27631883  0.46474987     1.80970
O1879       O  0.65731728  0.27761553  0.02874555    -0.98270
Mn1880     Mn  0.79846522  0.19935316  0.49507772     1.49260
C1881       C  0.84503084  0.24522091  0.44210376     1.06530
Mn1882     Mn  0.67709946  0.32528042  0.01779757     1.49930
C1883       C  0.70923842  0.35786233  0.08340613     1.09430
O1884       O  0.79328509  0.32373491  0.48973079    -1.04070
O1885       O  0.63794498  0.20934852  0.49584551    -0.93740
C1886       C  0.79871571  0.33517179  0.46053759     1.20720
O1887       O  0.67040101  0.31371233  0.46571143    -1.04460
O1888       O  0.67971353  0.17715310  0.52470865    -0.91860
O1889       O  0.68460429  0.33739216  0.07177968    -0.91470
O1890       O  0.86537497  0.24892025  0.03148974    -0.91490
Mn1891     Mn  0.72022638  0.18664120  0.48889869     1.47860
O1892       O  0.69200399  0.25960575  0.07131509    -0.79970
C1893       C  0.79768189  0.29452756  0.07983227     1.13770
O1894       O  0.76117945  0.23946095  0.42107863    -0.78700
O1895       O  0.74546436  0.21199901  0.06946746    -0.78310
Mn1896     Mn  0.76749537  0.34559964  0.02604170     1.51060
O1897       O  0.68377378  0.37812580  0.00901609    -0.90670
O1898       O  0.75968303  0.18006554  0.52594368    -0.98190
O1899       O  0.74015688  0.36181564  0.06934494    -0.93200
C1900       C  0.75851616  0.18354532  0.05832156     1.11560
C1901       C  0.79613386  0.09786920  0.10585240    -0.15020
C1902       C  0.80071650  0.11002609  0.14068928     0.07130
C1903       C  0.79682757  0.14709045  0.14612335    -0.15020
C1904       C  0.78465490  0.17064327  0.11870857    -0.15020
C1905       C  0.77602505  0.15791797  0.08488867     0.07130
C1906       C  0.78397510  0.12159971  0.07812513    -0.15020
H1907       H  0.79790418  0.06920092  0.10104613     0.11120
H1908       H  0.79915165  0.15718405  0.17267385     0.11120
H1909       H  0.78005889  0.19872978  0.12473259     0.11120
H1910       H  0.77843171  0.11104172  0.05229557     0.11120
C1911       C  0.70942598  0.44647901  0.12599338    -0.15020
C1912       C  0.69743641  0.43742101  0.16008424     0.07130
C1913       C  0.68667316  0.40172238  0.16905550    -0.15020
C1914       C  0.68743120  0.37529345  0.14353565    -0.15020
C1915       C  0.70150221  0.38422660  0.11001283     0.07130
C1916       C  0.71298077  0.41971831  0.10176627    -0.15020
H1917       H  0.71881471  0.47344070  0.11896537     0.11120
H1918       H  0.67853557  0.39415977  0.19596175     0.11120
H1919       H  0.67951578  0.34784824  0.15054100     0.11120
H1920       H  0.72579706  0.42663897  0.07649756     0.11120
C1921       C  0.69588681  0.34437740  0.37336267    -0.15020
C1922       C  0.68064539  0.35009338  0.40768017     0.07130
C1923       C  0.66629388  0.38514983  0.41249348    -0.15020
C1924       C  0.66870938  0.41300332  0.38531612    -0.15020
C1925       C  0.68568789  0.40729136  0.35197110     0.07130
C1926       C  0.69854533  0.37206452  0.34649667    -0.15020
H1927       H  0.70749793  0.31825468  0.36743126     0.11120
H1928       H  0.65492480  0.39212308  0.43762117     0.11120
H1929       H  0.65820768  0.43963682  0.39099116     0.11120
H1930       H  0.71170586  0.36597299  0.32160213     0.11120
C1931       C  0.75084912  0.10878613  0.40920756    -0.15020
C1932       C  0.76818546  0.10507678  0.37678693     0.07130
C1933       C  0.78253986  0.13604256  0.35888068    -0.15020
C1934       C  0.77923368  0.17053901  0.37388212    -0.15020
C1935       C  0.76205892  0.17372606  0.40703691     0.07130
C1936       C  0.74779126  0.14209846  0.42386935    -0.15020
H1937       H  0.73913006  0.08562357  0.42331063     0.11120
H1938       H  0.79533329  0.13365254  0.33318842     0.11120
H1939       H  0.79049208  0.19404019  0.36015855     0.11120
H1940       H  0.73475993  0.14245153  0.44965553     0.11120
C1941       C  0.89979302  0.11315325  0.24968020    -0.15020
C1942       C  0.89793712  0.15082589  0.25227353     0.07130
C1943       C  0.86341852  0.16620262  0.26036231    -0.15020
C1944       C  0.83233283  0.14517893  0.26601743    -0.15020
C1945       C  0.83422795  0.10758502  0.26426625     0.07130
C1946       C  0.86855894  0.09197655  0.25581682    -0.15020
H1947       H  0.92520547  0.10008446  0.24327607     0.11120
H1948       H  0.86016039  0.19515803  0.26256729     0.11120
H1949       H  0.80686030  0.15845121  0.27181188     0.11120
H1950       H  0.87137407  0.06296904  0.25368233     0.11120
C1951       C  0.83615858  0.36357601  0.23833827    -0.15020
C1952       C  0.87062415  0.37421809  0.22769403     0.07130
C1953       C  0.88102457  0.41046058  0.22975852    -0.15020
C1954       C  0.85784695  0.43565573  0.24357518    -0.15020
C1955       C  0.82363361  0.42509911  0.25467023     0.07130
C1956       C  0.81255730  0.38904957  0.25170685    -0.15020
H1957       H  0.82863180  0.33534279  0.23872500     0.11120
H1958       H  0.90834115  0.41897752  0.22444536     0.11120
H1959       H  0.86672483  0.46329288  0.24567400     0.11120
H1960       H  0.78585833  0.38050420  0.26011020     0.11120
C1961       C  0.61553028  0.17560694  0.20092053    -0.15020
C1962       C  0.59751035  0.17399853  0.23426419     0.07130
C1963       C  0.61021775  0.14887287  0.25941823    -0.15020
C1964       C  0.63796074  0.12476241  0.25087208    -0.15020
C1965       C  0.65296104  0.12196045  0.21670920     0.07130
C1966       C  0.64261179  0.14942209  0.19182912    -0.15020
H1967       H  0.60913952  0.19760124  0.18254098     0.11120
H1968       H  0.59874839  0.14804843  0.28598007     0.11120
H1969       H  0.64753551  0.10715663  0.27124621     0.11120
H1970       H  0.65634034  0.15148419  0.16639523     0.11120
C1971       C  0.58691151  0.37230297  0.17600924    -0.15020
C1972       C  0.57505868  0.34720898  0.20239019     0.07130
C1973       C  0.58501070  0.35371289  0.23766865    -0.15020
C1974       C  0.60052167  0.38553378  0.24755249    -0.15020
C1975       C  0.60853856  0.41262897  0.22234681     0.07130
C1976       C  0.60260689  0.40542258  0.18598440    -0.15020
H1977       H  0.58278978  0.36716012  0.14827739     0.11120
H1978       H  0.58050097  0.33412675  0.25857138     0.11120
H1979       H  0.60609344  0.38881303  0.27541171     0.11120
H1980       H  0.60979321  0.42531987  0.16540921     0.11120
C1981       C  0.89225748  0.30581981  0.11574464    -0.15020
C1982       C  0.89090929  0.28557254  0.14772446     0.07130
C1983       C  0.85771393  0.26956929  0.15821502    -0.15020
C1984       C  0.82683589  0.27356401  0.13721555    -0.15020
C1985       C  0.82815861  0.29394513  0.10529157     0.07130
C1986       C  0.86113501  0.31042618  0.09510476    -0.15020
H1987       H  0.91728465  0.31782466  0.10661018     0.11120
H1988       H  0.85551026  0.25346348  0.18273659     0.11120
H1989       H  0.80223222  0.26015105  0.14561961     0.11120
H1990       H  0.86325456  0.32608682  0.07043625     0.11120
C1991       C  0.56658021  0.24005618  0.08785262    -0.15020
C1992       C  0.57256461  0.21146965  0.11297324     0.07130
C1993       C  0.60607611  0.19370086  0.11288963    -0.15020
C1994       C  0.63538762  0.20967529  0.09478825    -0.15020
C1995       C  0.63041198  0.24183753  0.07410602     0.07130
C1996       C  0.59527458  0.25516673  0.06858566    -0.15020
H1997       H  0.54057236  0.25380836  0.08666493     0.11120
H1998       H  0.61022440  0.16949381  0.12916798     0.11120
H1999       H  0.66196350  0.19736086  0.09745419     0.11120
H2000       H  0.59038834  0.27895580  0.05155748     0.11120
C2001       C  0.59453753  0.17501507  0.37373670    -0.15020
C2002       C  0.58340088  0.20773546  0.35673038     0.07130
C2003       C  0.60808598  0.23564113  0.35149478    -0.15020
C2004       C  0.64183276  0.23286891  0.36723389    -0.15020
C2005       C  0.65007306  0.20333605  0.39061643     0.07130
C2006       C  0.62806917  0.17278781  0.39068338    -0.15020
H2007       H  0.57641676  0.15226316  0.37597691     0.11120
H2008       H  0.60077176  0.26009078  0.33635390     0.11120
H2009       H  0.65918983  0.25626215  0.36548910     0.11120
H2010       H  0.63472912  0.14903372  0.40706825     0.11120
C2011       C  0.86962343  0.23226819  0.34457196    -0.15020
C2012       C  0.88136956  0.26730834  0.33485990     0.07130
C2013       C  0.87518431  0.29523007  0.35795229    -0.15020
C2014       C  0.86145005  0.28770530  0.39166315    -0.15020
C2015       C  0.85562940  0.25182533  0.40421721     0.07130
C2016       C  0.85743766  0.22439522  0.37948469    -0.15020
H2017       H  0.87324655  0.21044560  0.32647220     0.11120
H2018       H  0.88284587  0.32269940  0.35057252     0.11120
H2019       H  0.85617321  0.31044026  0.40781160     0.11120
H2020       H  0.85052105  0.19694564  0.38738484     0.11120
C2021       C  0.81734568  0.39581977  0.47239896    -0.15020
C2022       C  0.82731037  0.36223133  0.45829391     0.07130
C2023       C  0.86023742  0.34741600  0.47072671    -0.15020
C2024       C  0.87312426  0.35622204  0.00384859    -0.15020
C2025       C  0.86682095  0.39131160  0.01525742     0.07130
C2026       C  0.83746134  0.41070380  0.49995461    -0.15020
H2027       H  0.79300447  0.40958148  0.46330081     0.11120
H2028       H  0.87362943  0.32533613  0.45844786     0.11120
H2029       H  0.89640142  0.34093111  0.01383767     0.11120
H2030       H  0.83161913  0.43805132  0.50770970     0.11110
C2031       C  0.93879431  0.15808657  0.00347743    -0.15020
C2032       C  0.92854686  0.12422382  0.01841022     0.07130
C2033       C  0.90354907  0.12340223  0.54651279    -0.15020
C2034       C  0.88709185  0.15524865  0.05763919    -0.15020
C2035       C  0.89355060  0.18873033  0.03968058     0.07130
C2036       C  0.92095985  0.19007809  0.01359327    -0.15020
H2037       H  0.95869885  0.15948929  0.98227632     0.11120
H2038       H  0.89610935  0.09791058  0.55948579     0.11120
H2039       H  0.86609625  0.15308479  0.57779124     0.11120
H2040       H  0.92603595  0.21506649  0.99859605     0.11120
C2041       C  0.59163598  0.39055327  0.02134408    -0.15020
C2042       C  0.58868076  0.41672112  0.04726299     0.07130
C2043       C  0.62137192  0.43320512  0.05683494    -0.15020
C2044       C  0.65526899  0.42577384  0.04034438    -0.15020
C2045       C  0.66180503  0.39726659  0.01444637     0.07130
C2046       C  0.62397479  0.38433068  0.50258243    -0.15020
H2047       H  0.56715090  0.37943754  0.51078350     0.11120
H2048       H  0.61985876  0.45634087  0.07364617     0.11120
H2049       H  0.67711165  0.44375505  0.04558321     0.11120
H2050       H  0.62240913  0.36645517  0.48057417     0.11120
C2051       C  0.62213784  0.08231330  0.01799450    -0.15020
C2052       C  0.60027450  0.08095938  0.48787990     0.07130
C2053       C  0.59475556  0.11224789  0.46637112    -0.15020
C2054       C  0.60754860  0.14512946  0.47667557    -0.15020
C2055       C  0.62882576  0.14700817  0.50704152     0.07130
C2056       C  0.63697342  0.11519998  0.02721331    -0.15020
H2057       H  0.62533482  0.05877217  0.03574217     0.11120
H2058       H  0.57686057  0.11207820  0.44374606     0.11120
H2059       H  0.60122977  0.16907553  0.46039196     0.11120
H2060       H  0.65410274  0.11599231  0.05038117     0.11120
C2061       C  0.84145602  0.98623699  0.44642528    -0.15020
C2062       C  0.87281813  0.46784092  0.43512250     0.07130
C2063       C  0.86980428  0.44220722  0.40883662    -0.15020
C2064       C  0.83687018  0.43793682  0.39164805    -0.15020
C2065       C  0.80657952  0.45945763  0.40028364     0.07130
C2066       C  0.80857073  0.98186800  0.42934233    -0.15020
H2067       H  0.84265412  0.00555070  0.46730920     0.11120
H2068       H  0.89322452  0.42692981  0.40028085     0.11120
H2069       H  0.83601218  0.42046924  0.36918770     0.11120
H2070       H  0.78592294  0.99910810  0.43625585     0.11120
C2071       C  0.57025418  0.06357211  0.33843731    -0.15020
C2072       C  0.57235840  0.05040228  0.37338658     0.07130
C2073       C  0.60409577  0.05582664  0.39273705    -0.15020
C2074       C  0.63410880  0.07185551  0.37660721    -0.15020
C2075       C  0.63396494  0.08010167  0.34003245     0.07130
C2076       C  0.60074231  0.07842136  0.32204113    -0.15020
H2077       H  0.54525348  0.06214785  0.32379281     0.11120
H2078       H  0.60566029  0.04744107  0.42049891     0.11120
H2079       H  0.65910709  0.07241169  0.39138794     0.11120
H2080       H  0.59875904  0.08418189  0.29410304     0.11120
C2081       C  0.56669861  0.07168073  0.15488234    -0.15020
C2082       C  0.56384266  0.03854068  0.13820762     0.07130
C2083       C  0.55897318  0.00703921  0.16015694    -0.15020
C2084       C  0.56070017  0.00818137  0.19741185    -0.15020
C2085       C  0.56956781  0.04037153  0.21362101     0.07130
C2086       C  0.56921779  0.07257889  0.19208512    -0.15020
H2087       H  0.56862421  0.09671625  0.13916866     0.11120
H2088       H  0.55444147  0.48115480  0.14851019     0.11120
H2089       H  0.55947331  0.48306990  0.21302744     0.11120
H2090       H  0.57544622  0.09809801  0.20370531     0.11120
C2091       C  0.89783856  0.97713282  0.13575442    -0.15020
C2092       C  0.89661366  0.97660075  0.09880221     0.07130
C2093       C  0.86235509  0.97738995  0.08202811    -0.15020
C2094       C  0.83023546  0.98116001  0.10145398    -0.15020
C2095       C  0.83151503  0.98334532  0.13829797     0.07130
C2096       C  0.86565012  0.98045613  0.15522866    -0.15020
H2097       H  0.92352621  0.97734586  0.14932735     0.11120
H2098       H  0.86049712  0.97692087  0.05334052     0.11120
H2099       H  0.80467029  0.98318483  0.08767743     0.11120
H2100       H  0.86775038  0.98298695  0.18364530     0.11120
C2101       C  0.90209553  0.12483478  0.41638317    -0.15020
C2102       C  0.90635685  0.09284655  0.39693228     0.07130
C2103       C  0.90157560  0.09590412  0.36043769    -0.15020
C2104       C  0.90753642  0.12944869  0.34371206    -0.15020
C2105       C  0.91825697  0.15934789  0.36339115     0.07130
C2106       C  0.91191781  0.15797884  0.40002625    -0.15020
H2107       H  0.90186177  0.12297689  0.44514311     0.11120
H2108       H  0.90197935  0.07206955  0.34453087     0.11120
H2109       H  0.91089480  0.12991966  0.31549321     0.11120
H2110       H  0.91831999  0.18067002  0.41614096     0.11120
C2111       C  0.50636702  0.37956476  0.39748752    -0.15020
C2112       C  0.53487575  0.40432591  0.40090564     0.07130
C2113       C  0.56435473  0.39873350  0.37678134    -0.15020
C2114       C  0.56394928  0.37087666  0.35024155    -0.15020
C2115       C  0.53399789  0.34725971  0.34635790     0.07130
C2116       C  0.50597537  0.35251056  0.37172480    -0.15020
H2117       H  0.48300677  0.38147095  0.41482524     0.11120
H2118       H  0.58721388  0.41661275  0.37742806     0.11120
H2119       H  0.58663811  0.36871814  0.33222668     0.11120
H2120       H  0.48223769  0.33573085  0.37136269     0.11120
C2121       C  0.51188468  0.39332680  0.12459490    -0.15020
C2122       C  0.48005922  0.38704243  0.09897715     0.07130
C2123       C  0.94575789  0.38668605  0.12373458    -0.15020
C2124       C  0.94518273  0.39639435  0.16020929    -0.15020
C2125       C  0.47662984  0.39989031  0.18139088     0.07130
C2126       C  0.50843575  0.40259954  0.16087220    -0.15020
H2127       H  0.53871335  0.39317984  0.11310230     0.11120
H2128       H  0.92004152  0.38153886  0.11151284     0.11120
H2129       H  0.91875355  0.39918991  0.17154507     0.11120
H2130       H  0.53217715  0.41020775  0.17469578     0.11120
C2131       C  0.49253631  0.12118041  0.10384651    -0.15020
C2132       C  0.97059703  0.09391519  0.11925313     0.07130
C2133       C  0.93776851  0.10373179  0.13492567    -0.15020
C2134       C  0.92877121  0.14033038  0.13749884    -0.15020
C2135       C  0.95233939  0.16724776  0.12376226     0.07130
C2136       C  0.48257920  0.15713683  0.10438497    -0.15020
H2137       H  0.51620919  0.11496290  0.08852137     0.11120
H2138       H  0.91888726  0.08327482  0.14419766     0.11120
H2139       H  0.90496848  0.14775747  0.15260745     0.11120
H2140       H  0.50096454  0.17713424  0.09317143     0.11120
O2141       O  0.53391795  0.06558563  0.91671565    -0.89850
C2142       C  0.97375020  0.05956990  0.60241272     1.10190
O2143       O  0.48829093  0.02001206  0.96104014    -1.37660
O2144       O  0.55099606  0.06417043  0.57963317    -0.91330
O2145       O  0.52014738  0.51462821  0.88873244    -0.92000
O2146       O  0.55081452  0.45506665  0.94416560    -0.80820
O2147       O  0.54116955  0.06977883  0.99424791    -1.02910
C2148       C  0.55662204  0.44138397  0.54190411     1.20230
O2149       O  0.97822319  0.46206314  0.50197985    -1.37800
Mn2150     Mn  0.95358739  0.01049267  0.50442590     1.82050
O2151       O  0.56221632  0.46185319  0.51603031    -0.79900
O2152       O  0.55919910  0.00591386  0.58569727    -0.89290
C2153       C  0.92920967  0.98210191  0.57613962     1.11320
C2154       C  0.56083067  0.03653665  0.59860441     1.06040
O2155       O  0.90876500  0.99842015  0.97533945    -0.80830
O2156       O  0.50279298  0.01705080  0.53250528    -1.34530
O2157       O  0.93676876  0.46218180  0.94068756    -1.00050
C2158       C  0.98621486  0.36997801  0.55392695     1.04760
Mn2159     Mn  0.50793796  0.98723742  0.58345573     1.48570
O2160       O  0.98288977  0.38097429  0.01872003    -0.89240
Mn2161     Mn  0.97431212  0.49108097  0.91582081     1.49560
O2162       O  0.95859163  0.08381600  0.92800088    -0.93120
C2163       C  0.57050196  0.05612617  0.98866485     1.17950
C2164       C  0.93573627  0.06825593  0.90926481     1.10010
Mn2165     Mn  0.52722431  0.48973747  0.98812863     1.80970
O2166       O  0.95891616  0.46623790  0.58078144    -0.98270
Mn2167     Mn  0.50223039  0.07485560  0.95867337     1.49260
C2168       C  0.53964092  0.04258083  0.89352800     1.06530
Mn2169     Mn  0.97555024  0.43165921  0.54516648     1.49930
C2170       C  0.90134560  0.40943153  0.51506620     1.09430
O2171       O  0.99805944  0.44461778  0.93437708    -1.04070
O2172       O  0.48854095  0.03105344  0.61562047    -0.93740
C2173       C  0.52871880  0.43576549  0.92761937     1.20720
O2174       O  0.52701156  0.44320688  0.55871142    -1.04460
O2175       O  0.46829142  0.06211811  0.57021415    -0.91860
O2176       O  0.91901708  0.41822403  0.54188813    -0.91470
O2177       O  0.93885049  0.03524375  0.89990810    -0.91490
Mn2178     Mn  0.51129240  0.07113153  0.53738040     1.47860
O2179       O  0.92315140  0.00005232  0.54795571    -0.79970
C2180       C  0.90811707  0.47634394  0.95072149     1.13770
O2181       O  0.57252627  0.02343369  0.98040349    -0.78700
O2182       O  0.92712685  0.06108068  0.00723703    -0.78310
Mn2183     Mn  0.96388016  0.42282615  0.97051675     1.51060
O2184       O  0.97946033  0.39163745  0.57426430    -0.90670
O2185       O  0.47682528  0.08660747  0.00120028    -0.98190
O2186       O  0.91547360  0.40989820  0.98536419    -0.93200
C2187       C  0.94461033  0.08965715  0.00647072     1.11560
O2188       O  0.53860511  0.18771364  0.82022892    -0.89850
C2189       C  0.95650450  0.19966131  0.64365748     1.10190
O2190       O  0.98547224  0.23675167  0.78305634    -1.37660
O2191       O  0.53323470  0.18722984  0.66032550    -0.91330
O2192       O  0.52831937  0.24015336  0.84836197    -0.92000
O2193       O  0.54750575  0.30023656  0.79705614    -0.80820
O2194       O  0.53441818  0.18124362  0.74246833    -1.02910
C2195       C  0.55274076  0.31375621  0.69747525     1.20230
O2196       O  0.97626572  0.30038826  0.74375911    -1.37800
Mn2197     Mn  0.94876499  0.25290708  0.74233919     1.82050
O2198       O  0.55994434  0.28925494  0.71977920    -0.79900
O2199       O  0.54900580  0.24436837  0.65815649    -0.89290
C2200       C  0.92251000  0.28152974  0.67175486     1.11320
C2201       C  0.55114117  0.21341077  0.64604190     1.06040
O2202       O  0.90419685  0.26145006  0.77592161    -0.80830
O2203       O  0.49454769  0.24039628  0.71142673    -1.34530
O2204       O  0.93608774  0.28848817  0.81286321    -1.00050
C2205       C  0.48234043  0.38627394  0.72153603     1.04760
Mn2206     Mn  0.49985602  0.26809386  0.66061708     1.48570
O2207       O  0.96109326  0.38476593  0.74884487    -0.89240
Mn2208     Mn  0.97785421  0.26266810  0.83167791     1.49560
O2209       O  0.96182353  0.17062330  0.82143323    -0.93120
C2210       C  0.56434965  0.19592854  0.74291903     1.17950
C2211       C  0.94412989  0.18473247  0.84598355     1.10010
Mn2212     Mn  0.52323918  0.26596897  0.75312682     1.80970
O2213       O  0.95304098  0.29389378  0.66484476    -0.98270
Mn2214     Mn  0.49887817  0.17988324  0.78328509     1.49260
C2215       C  0.54747773  0.21197558  0.84140682     1.06530
Mn2216     Mn  0.97664603  0.32927504  0.69494118     1.49930
C2217       C  0.89954599  0.34846983  0.73064857     1.09430
O2218       O  0.99511209  0.31149922  0.81274560    -1.04070
O2219       O  0.47547270  0.22603003  0.63192148    -0.93740
C2220       C  0.52629680  0.31986412  0.81606066     1.20720
O2221       O  0.52398017  0.31188125  0.68008082    -1.04460
O2222       O  0.45136232  0.19502298  0.67608996    -0.91860
O2223       O  0.92347190  0.34804038  0.70658752    -0.91470
O2224       O  0.94855860  0.21745623  0.85495184    -0.91490
Mn2225     Mn  0.49633835  0.18413705  0.70602250     1.47860
O2226       O  0.91589030  0.26761586  0.70181725    -0.79970
C2227       C  0.90804124  0.27318112  0.80637158     1.13770
O2228       O  0.56658612  0.22753202  0.75514289    -0.78700
O2229       O  0.92010953  0.20798008  0.74070115    -0.78310
Mn2230     Mn  0.95345394  0.33203683  0.78376109     1.51060
O2231       O  0.00570628  0.36307339  0.72429965    -0.90670
O2232       O  0.96261951  0.16938399  0.74652097    -0.98190
O2233       O  0.90435856  0.33529277  0.76125312    -0.93200
C2234       C  0.92947289  0.17633425  0.74668828     1.11560
O2235       O  0.79177059  0.05450874  0.84610290    -0.89850
C2236       C  0.79897619  0.99109089  0.66026880     1.10190
O2237       O  0.74140975  0.01243085  0.80142689    -1.37660
O2238       O  0.81231663  0.06286673  0.68644733    -0.91330
O2239       O  0.73301535  0.05631657  0.86248059    -0.92000
O2240       O  0.69127321  0.08324534  0.80728047    -0.80820
O2241       O  0.80704577  0.05135750  0.76898465    -1.02910
C2242       C  0.68435624  0.09517943  0.71332713     1.20230
O2243       O  0.68200569  0.01500032  0.75826952    -1.37800
Mn2244     Mn  0.72479416  0.97943195  0.76023458     1.82060
O2245       O  0.70812313  0.09836477  0.73601038    -0.79900
O2246       O  0.75707236  0.08457163  0.67652562    -0.89290
C2247       C  0.70180581  0.46349221  0.68739653     1.11320
C2248       C  0.79040332  0.08505290  0.67042167     1.06040
O2249       O  0.70557722  0.43437436  0.79394934    -0.80830
O2250       O  0.74877530  0.02424060  0.72930439    -1.34530
O2251       O  0.68082481  0.46870842  0.82994093    -1.00050
C2252       C  0.59591931  0.03868756  0.74332161     1.04760
Mn2253     Mn  0.72820059  0.03819631  0.67779603     1.48570
O2254       O  0.59577273  0.01700479  0.77031284    -0.89240
Mn2255     Mn  0.70907926  0.00899447  0.84778058     1.49560
O2256       O  0.79305794  0.97021636  0.84116681    -0.93120
C2257       C  0.80159680  0.08357499  0.76978959     1.17950
C2258       C  0.78044753  0.96920760  0.87220955     1.10010
Mn2259     Mn  0.72386970  0.05586980  0.76880609     1.80970
O2260       O  0.69567935  0.99615019  0.68128286    -0.98270
Mn2261     Mn  0.79769402  0.01468457  0.80728383     1.49260
C2262       C  0.76448287  0.06988582  0.86045271     1.06530
Mn2263     Mn  0.65810303  0.02235720  0.70776138     1.49930
C2264       C  0.62389412  0.44703379  0.73513202     1.09430
O2265       O  0.66786036  0.03297028  0.82325109    -1.04070
O2266       O  0.77231656  0.01104450  0.64945393    -0.93740
C2267       C  0.66523053  0.06555733  0.82136919     1.20720
O2268       O  0.68468122  0.06660436  0.69628973    -1.04460
O2269       O  0.80138598  0.98172904  0.69228443    -0.91860
O2270       O  0.62884908  0.47324651  0.71272167    -0.91470
O2271       O  0.74876722  0.48090532  0.87926573    -0.91490
Mn2272     Mn  0.80541019  0.02084125  0.72831596     1.47860
O2273       O  0.70952589  0.45121854  0.71797219    -0.79970
C2274       C  0.69140576  0.43819318  0.82428327     1.13770
O2275       O  0.76891785  0.09354960  0.77510294    -0.78700
O2276       O  0.76552189  0.44418642  0.76196896    -0.78310
Mn2277     Mn  0.64434965  0.49453868  0.79731334     1.51060
O2278       O  0.62469752  0.05319571  0.73612677    -0.90670
O2279       O  0.80558316  0.98397282  0.76697857    -0.98190
O2280       O  0.63120881  0.44919851  0.76825388    -0.93200
C2281       C  0.79749791  0.95236694  0.76365388     1.11560
O2282       O  0.83660674  0.21399935  0.95467695    -0.89850
C2283       C  0.64859283  0.18025075  0.01199078     1.10190
O2284       O  0.78378331  0.25291446  0.00468927    -1.37660
O2285       O  0.68378973  0.18684985  0.94368585    -0.91330
O2286       O  0.84338623  0.27279227  0.96064892    -0.92000
O2287       O  0.78522013  0.31588810  0.93751216    -0.80820
O2288       O  0.76128488  0.19848633  0.96087726    -1.02910
C2289       C  0.68831404  0.32116007  0.93752600     1.20230
O2290       O  0.73156728  0.30762571  0.51158532    -1.37800
Mn2291     Mn  0.73877942  0.25916384  0.54039789     1.82050
O2292       O  0.71409680  0.30052189  0.93012152    -0.79900
O2293       O  0.66743929  0.24423112  0.93131692    -0.89290
C2294       C  0.66135469  0.26039324  0.55696970     1.11320
C2295       C  0.66986031  0.21156972  0.92297238     1.06040
O2296       O  0.76896682  0.27681760  0.58459031    -0.80830
O2297       O  0.71273745  0.24212872  0.99355085    -1.34530
O2298       O  0.80219145  0.30999731  0.55120959    -1.00050
C2299       C  0.70317445  0.39697897  0.99205863     1.04760
Mn2300     Mn  0.65982859  0.26058315  0.98145235     1.48570
O2301       O  0.73633396  0.38548701  0.99410647    -0.89240
Mn2302     Mn  0.82599658  0.28772015  0.50988978     1.49560
O2303       O  0.83255093  0.19974027  0.03718271    -0.93120
C2304       C  0.76236337  0.20592030  0.92962226     1.17950
C2305       C  0.86265206  0.21466377  0.53728403     1.10010
Mn2306     Mn  0.74894011  0.27631699  0.96475201     1.80970
O2307       O  0.65731860  0.27761743  0.52874395    -0.98270
Mn2308     Mn  0.79846552  0.19935343  0.99508042     1.49260
C2309       C  0.84502920  0.24522167  0.94210492     1.06530
Mn2310     Mn  0.67710187  0.32528214  0.51779638     1.49930
C2311       C  0.70924271  0.35786256  0.58340564     1.09430
O2312       O  0.79328242  0.32373549  0.98973171    -1.04070
O2313       O  0.63794499  0.20934671  0.99584774    -0.93740
C2314       C  0.79871240  0.33517194  0.96053825     1.20720
O2315       O  0.67039982  0.31371130  0.96571212    -1.04460
O2316       O  0.67971367  0.17715125  0.02471084    -0.91860
O2317       O  0.68460754  0.33739393  0.57177854    -0.91470
O2318       O  0.86537507  0.24891795  0.53148962    -0.91490
Mn2319     Mn  0.72022676  0.18663956  0.98890112     1.47860
O2320       O  0.69200500  0.25960687  0.57131325    -0.79970
C2321       C  0.79768303  0.29452607  0.57983141     1.13770
O2322       O  0.76117942  0.23945924  0.92108129    -0.78700
O2323       O  0.74546383  0.21199900  0.56946492    -0.78310
Mn2324     Mn  0.76749880  0.34559931  0.52604122     1.51060
O2325       O  0.68377781  0.37812739  0.50901441    -0.90670
O2326       O  0.75968344  0.18006528  0.02594634    -0.98190
O2327       O  0.74016120  0.36181525  0.56934460    -0.93200
C2328       C  0.75851571  0.18354541  0.55831894     1.11560
C2329       C  0.79613234  0.09786900  0.60585048    -0.15020
C2330       C  0.80071580  0.11002625  0.64068716     0.07130
C2331       C  0.79682732  0.14709074  0.64612080    -0.15020
C2332       C  0.78465468  0.17064342  0.61870587    -0.15020
C2333       C  0.77602437  0.15791791  0.58488615     0.07130
C2334       C  0.78397366  0.12159940  0.57812303    -0.15020
H2335       H  0.79790214  0.06920063  0.60104454     0.11120
H2336       H  0.79915186  0.15718464  0.67267113     0.11120
H2337       H  0.78005914  0.19873005  0.62472962     0.11120
H2338       H  0.77842979  0.11104118  0.55229368     0.11120
C2339       C  0.70942944  0.44647952  0.62599222    -0.15020
C2340       C  0.69744429  0.43742095  0.66008443     0.07130
C2341       C  0.68668769  0.40172058  0.66905797    -0.15020
C2342       C  0.68744395  0.37529162  0.64353821    -0.15020
C2343       C  0.70150792  0.38422629  0.61001300     0.07130
C2344       C  0.71298368  0.41971866  0.60176512    -0.15020
H2345       H  0.71881474  0.47344211  0.61896273     0.11120
H2346       H  0.67855298  0.39415768  0.69596518     0.11120
H2347       H  0.67953201  0.34784566  0.65054483     0.11120
H2348       H  0.72579756  0.42663965  0.57649533     0.11120
C2349       C  0.69591132  0.34438357  0.87336939    -0.15020
C2350       C  0.68065353  0.35009360  0.90768145     0.07130
C2351       C  0.66628598  0.38514483  0.91248912    -0.15020
C2352       C  0.66869960  0.41299856  0.88531109    -0.15020
C2353       C  0.68569184  0.40729189  0.85197132     0.07130
C2354       C  0.69856772  0.37207056  0.84650345    -0.15020
H2355       H  0.70753540  0.31826556  0.86744139     0.11120
H2356       H  0.65490424  0.39211393  0.93761288     0.11120
H2357       H  0.65818426  0.43962810  0.89098125     0.11120
H2358       H  0.71174057  0.36598338  0.82161390     0.11120
C2359       C  0.75085222  0.10878453  0.90920913    -0.15020
C2360       C  0.76818692  0.10507659  0.87678746     0.07130
C2361       C  0.78253969  0.13604312  0.85888123    -0.15020
C2362       C  0.77923351  0.17053900  0.87388373    -0.15020
C2363       C  0.76206020  0.17372469  0.90703938     0.07130
C2364       C  0.74779406  0.14209640  0.92387180    -0.15020
H2365       H  0.73913424  0.08562131  0.92331205     0.11120
H2366       H  0.79533167  0.13365412  0.83318817     0.11120
H2367       H  0.79049059  0.19404086  0.86016017     0.11120
H2368       H  0.73476329  0.14244872  0.94965832     0.11120
C2369       C  0.89979345  0.11315329  0.74968114    -0.15020
C2370       C  0.89793751  0.15082587  0.75227469     0.07130
C2371       C  0.86341893  0.16620271  0.76036326    -0.15020
C2372       C  0.83233317  0.14517914  0.76601786    -0.15020
C2373       C  0.83422830  0.10758530  0.76426641     0.07130
C2374       C  0.86855929  0.09197669  0.75581730    -0.15020
H2375       H  0.92520594  0.10008449  0.74327718     0.11120
H2376       H  0.86016085  0.19515810  0.76256846     0.11120
H2377       H  0.80686061  0.15845145  0.77181209     0.11120
H2378       H  0.87137436  0.06296919  0.75368267     0.11120
C2379       C  0.83615816  0.36357602  0.73833983    -0.15020
C2380       C  0.87062382  0.37421786  0.72769566     0.07130
C2381       C  0.88102461  0.41046019  0.72976037    -0.15020
C2382       C  0.85784733  0.43565543  0.74357731    -0.15020
C2383       C  0.82363378  0.42509918  0.75467191     0.07130
C2384       C  0.81255708  0.38904978  0.75170838    -0.15020
H2385       H  0.82863113  0.33534287  0.73872640     0.11120
H2386       H  0.90834121  0.41897696  0.72444709     0.11120
H2387       H  0.86672552  0.46329246  0.74567631     0.11120
H2388       H  0.78585794  0.38050470  0.76011148     0.11120
C2389       C  0.61553108  0.17560754  0.70091769    -0.15020
C2390       C  0.59751158  0.17400032  0.73426145     0.07130
C2391       C  0.61021922  0.14887575  0.75941643    -0.15020
C2392       C  0.63796212  0.12476525  0.75087086    -0.15020
C2393       C  0.65296212  0.12196195  0.71670809     0.07130
C2394       C  0.64261237  0.14942236  0.69182689    -0.15020
H2395       H  0.60913994  0.19760123  0.68253760     0.11120
H2396       H  0.59875003  0.14805224  0.78597832     0.11120
H2397       H  0.64753727  0.10715983  0.77124630     0.11120
H2398       H  0.65634027  0.15148322  0.66639259     0.11120
C2399       C  0.58693558  0.37229706  0.67599781    -0.15020
C2400       C  0.57503042  0.34723166  0.70238303     0.07130
C2401       C  0.58491265  0.35377347  0.73767024    -0.15020
C2402       C  0.60043296  0.38558702  0.74755148    -0.15020
C2403       C  0.60852345  0.41264630  0.72233569     0.07130
C2404       C  0.60263550  0.40541637  0.68597051    -0.15020
H2405       H  0.58285147  0.36713413  0.64826396     0.11120
H2406       H  0.58033229  0.33422282  0.75858545     0.11120
H2407       H  0.60594856  0.38889193  0.77541768     0.11120
H2408       H  0.60986454  0.42529289  0.66539114     0.11120
C2409       C  0.89225730  0.30581956  0.61574605    -0.15020
C2410       C  0.89090880  0.28557178  0.64772555     0.07130
C2411       C  0.85771351  0.26956804  0.65821542    -0.15020
C2412       C  0.82683584  0.27356254  0.63721535    -0.15020
C2413       C  0.82815899  0.29394392  0.60529152     0.07130
C2414       C  0.86113526  0.31042568  0.59510561    -0.15020
H2415       H  0.91728440  0.31782506  0.60661226     0.11120
H2416       H  0.85550969  0.25346197  0.68273682     0.11120
H2417       H  0.80223219  0.26014918  0.64561879     0.11120
H2418       H  0.86325505  0.32608673  0.57043738     0.11120
C2419       C  0.56658109  0.24006043  0.58785097    -0.15020
C2420       C  0.57256493  0.21147382  0.61297162     0.07130
C2421       C  0.60607578  0.19370375  0.61288758    -0.15020
C2422       C  0.63538761  0.20967735  0.59478605    -0.15020
C2423       C  0.63041273  0.24183987  0.57410408     0.07130
C2424       C  0.59527571  0.25517009  0.56858384    -0.15020
H2425       H  0.54057358  0.25381327  0.58666330     0.11120
H2426       H  0.61022347  0.16949633  0.62916558     0.11120
H2427       H  0.66196316  0.19736211  0.59745171     0.11120
H2428       H  0.59039003  0.27895930  0.55155570     0.11120
C2429       C  0.59453891  0.17501434  0.87373615    -0.15020
C2430       C  0.58340311  0.20773504  0.85672980     0.07130
C2431       C  0.60808909  0.23564006  0.85149474    -0.15020
C2432       C  0.64183565  0.23286690  0.86723447    -0.15020
C2433       C  0.65007480  0.20333383  0.89061726     0.07130
C2434       C  0.62807024  0.17278615  0.89068346    -0.15020
H2435       H  0.57641767  0.15226278  0.87597582     0.11120
H2436       H  0.60077580  0.26008991  0.83635380     0.11120
H2437       H  0.65919332  0.25625972  0.86549016     0.11120
H2438       H  0.63472939  0.14903180  0.90706824     0.11120
C2439       C  0.86962346  0.23226749  0.84457359    -0.15020
C2440       C  0.88136886  0.26730778  0.83486106     0.07130
C2441       C  0.87518151  0.29522998  0.85795239    -0.15020
C2442       C  0.86144595  0.28770560  0.89166288    -0.15020
C2443       C  0.85562711  0.25182563  0.90421800     0.07130
C2444       C  0.85743703  0.22439492  0.87948622    -0.15020
H2445       H  0.87324755  0.21044461  0.82647432     0.11120
H2446       H  0.88284199  0.32269948  0.85057203     0.11120
H2447       H  0.85616665  0.31044088  0.90781019     0.11120
H2448       H  0.85052110  0.19694530  0.88738684     0.11120
C2449       C  0.81734269  0.39581979  0.97240016    -0.15020
C2450       C  0.82730683  0.36223178  0.95829374     0.07130
C2451       C  0.86023459  0.34741650  0.97072467    -0.15020
C2452       C  0.87312597  0.35622275  0.50385070    -0.15020
C2453       C  0.86682211  0.39131266  0.51525825     0.07130
C2454       C  0.83745971  0.41070324  0.99995523    -0.15020
H2455       H  0.79300103  0.40958167  0.96330344     0.11120
H2456       H  0.87362666  0.32533762  0.95844424     0.11120
H2457       H  0.89640277  0.34093211  0.51384109     0.11120
H2458       H  0.83161791  0.43805059  0.00771107     0.11110
C2459       C  0.93879606  0.15808558  0.50347922    -0.15020
C2460       C  0.92854779  0.12422253  0.51841059     0.07130
C2461       C  0.90354931  0.12340425  0.04651341    -0.15020
C2462       C  0.88709125  0.15524631  0.55763881    -0.15020
C2463       C  0.89355076  0.18872837  0.53968123     0.07130
C2464       C  0.92096127  0.19007682  0.51359524    -0.15020
H2465       H  0.95870148  0.15948882  0.48227894     0.11120
H2466       H  0.89611025  0.09791292  0.05948746     0.11120
H2467       H  0.86609781  0.15308762  0.07779264     0.11120
H2468       H  0.92603805  0.21506557  0.49859887     0.11120
C2469       C  0.59164015  0.39055557  0.52134067    -0.15020
C2470       C  0.58868466  0.41672214  0.54726081     0.07130
C2471       C  0.62137552  0.43320588  0.55683377    -0.15020
C2472       C  0.65527277  0.42577505  0.54034354    -0.15020
C2473       C  0.66180933  0.39726847  0.51444506     0.07130
C2474       C  0.62397038  0.38432757  0.00258558    -0.15020
H2475       H  0.56714661  0.37943449  0.01078797     0.11120
H2476       H  0.61986205  0.45634116  0.57364559     0.11120
H2477       H  0.67711496  0.44375666  0.54558260     0.11120
H2478       H  0.62240448  0.36645043  0.98057869     0.11120
C2479       C  0.62213859  0.08231487  0.51799311    -0.15020
C2480       C  0.60027513  0.08095797  0.98788027     0.07130
C2481       C  0.59475789  0.11224625  0.96637085    -0.15020
C2482       C  0.60755061  0.14512770  0.97667586    -0.15020
C2483       C  0.62882621  0.14700637  0.00704288     0.07130
C2484       C  0.63697413  0.11520172  0.52721144    -0.15020
H2485       H  0.62533685  0.05877363  0.53574041     0.11120
H2486       H  0.57686401  0.11207662  0.94374491     0.11120
H2487       H  0.60123268  0.16907377  0.96039190     0.11120
H2488       H  0.65410456  0.11599408  0.55037850     0.11120
C2489       C  0.84145547  0.98623764  0.94642508    -0.15020
C2490       C  0.87281644  0.46784003  0.93512308     0.07130
C2491       C  0.86980230  0.44220587  0.90883766    -0.15020
C2492       C  0.83686811  0.43793538  0.89164928    -0.15020
C2493       C  0.80657764  0.45945663  0.90028451     0.07130
C2494       C  0.80857029  0.98186871  0.92934193    -0.15020
H2495       H  0.84265342  0.00555110  0.96730924     0.11120
H2496       H  0.89322241  0.42692818  0.90028204     0.11120
H2497       H  0.83600993  0.42046753  0.86918916     0.11120
H2498       H  0.78592238  0.99910862  0.93625559     0.11120
C2499       C  0.57025477  0.06357287  0.83843593    -0.15020
C2500       C  0.57235915  0.05040127  0.87338469     0.07130
C2501       C  0.60409641  0.05582528  0.89273544    -0.15020
C2502       C  0.63410908  0.07185561  0.87660637    -0.15020
C2503       C  0.63396529  0.08010311  0.84003184     0.07130
C2504       C  0.60074271  0.07842337  0.82204037    -0.15020
H2505       H  0.54525403  0.06214921  0.82379141     0.11120
H2506       H  0.60566093  0.04743881  0.92049711     0.11120
H2507       H  0.65910728  0.07241169  0.89138726     0.11120
H2508       H  0.59875952  0.08418540  0.79410247     0.11120
C2509       C  0.56670332  0.07167996  0.65488040    -0.15020
C2510       C  0.56384617  0.03853940  0.63820686     0.07130
C2511       C  0.55897479  0.00703894  0.66015716    -0.15020
C2512       C  0.56070084  0.00818247  0.69741203    -0.15020
C2513       C  0.56956948  0.04037293  0.71362014     0.07130
C2514       C  0.56922122  0.07257949  0.69208311    -0.15020
H2515       H  0.56863076  0.09671480  0.63916591     0.11120
H2516       H  0.55444315  0.48115593  0.64850981     0.11120
H2517       H  0.55947226  0.48307274  0.71302718     0.11120
H2518       H  0.57545025  0.09809885  0.70370252     0.11120
C2519       C  0.89783658  0.97712693  0.63575347    -0.15020
C2520       C  0.89661211  0.97660173  0.59880095     0.07130
C2521       C  0.86235372  0.97739615  0.58202628    -0.15020
C2522       C  0.83023415  0.98116531  0.60145228    -0.15020
C2523       C  0.83151342  0.98334417  0.63829685     0.07130
C2524       C  0.86564810  0.98044912  0.65522779    -0.15020
H2525       H  0.92352407  0.97733554  0.64932700     0.11120
H2526       H  0.86049585  0.97693171  0.55333841     0.11120
H2527       H  0.80466935  0.98319481  0.58767547     0.11120
H2528       H  0.86774835  0.98297497  0.68364498     0.11120
C2529       C  0.90209324  0.12483544  0.91638389    -0.15020
C2530       C  0.90635452  0.09284720  0.89693306     0.07130
C2531       C  0.90157353  0.09590490  0.86043845    -0.15020
C2532       C  0.90753602  0.12944916  0.84371292    -0.15020
C2533       C  0.91825698  0.15934800  0.86339226     0.07130
C2534       C  0.91191702  0.15797917  0.90002725    -0.15020
H2535       H  0.90185878  0.12297748  0.94514383     0.11120
H2536       H  0.90197680  0.07207034  0.84453163     0.11120
H2537       H  0.91089509  0.12991999  0.81549416     0.11120
H2538       H  0.91831942  0.18067018  0.91614210     0.11120
C2539       C  0.50636927  0.37955561  0.89749583    -0.15020
C2540       C  0.53487594  0.40431996  0.90091001     0.07130
C2541       C  0.56435371  0.39872839  0.87678424    -0.15020
C2542       C  0.56394904  0.37086919  0.85024693    -0.15020
C2543       C  0.53399874  0.34725035  0.84636572     0.07130
C2544       C  0.50597777  0.35249996  0.87173436    -0.15020
H2545       H  0.48301025  0.38146088  0.91483524     0.11120
H2546       H  0.58721134  0.41660975  0.87742815     0.11120
H2547       H  0.58663808  0.36870955  0.83223267     0.11120
H2548       H  0.48224137  0.33571832  0.87137415     0.11120
C2549       C  0.51188877  0.39331014  0.62459821    -0.15020
C2550       C  0.48006409  0.38703725  0.59897629     0.07130
C2551       C  0.94575845  0.38668666  0.62373591    -0.15020
C2552       C  0.94518322  0.39639446  0.66021079    -0.15020
C2553       C  0.47662811  0.39988541  0.68138996     0.07130
C2554       C  0.50843812  0.40258404  0.66087505    -0.15020
H2555       H  0.53871979  0.39315212  0.61311065     0.11120
H2556       H  0.92004205  0.38154014  0.61151391     0.11120
H2557       H  0.91875405  0.39919017  0.67154657     0.11120
H2558       H  0.53218206  0.41017983  0.67470224     0.11120
C2559       C  0.49254620  0.12117506  0.60386500    -0.15020
C2560       C  0.97059674  0.09391447  0.61925501     0.07130
C2561       C  0.93776717  0.10373133  0.63492543    -0.15020
C2562       C  0.92876998  0.14033000  0.63749832    -0.15020
C2563       C  0.95233898  0.16724718  0.62376290     0.07130
C2564       C  0.48258719  0.15713127  0.60439492    -0.15020
H2565       H  0.51622497  0.11495688  0.58854942     0.11120
H2566       H  0.91888516  0.08327450  0.64419604     0.11120
H2567       H  0.90496648  0.14775731  0.65260567     0.11120
H2568       H  0.50097528  0.17712746  0.59318395     0.11120
O2569       O  0.53391432  0.56558841  0.41671468    -0.89850
C2570       C  0.97374849  0.55956956  0.10241191     1.10190
O2571       O  0.48828986  0.52001139  0.46104147    -1.37660
O2572       O  0.55098664  0.56417844  0.07963453    -0.91330
O2573       O  0.52014716  0.01463261  0.38873390    -0.92000
O2574       O  0.55081341  0.95506814  0.44416412    -0.80820
O2575       O  0.54116648  0.56978221  0.49424682    -1.02910
C2576       C  0.55661480  0.94137988  0.04190359     1.20230
O2577       O  0.97822188  0.96206361  0.00197840    -1.37800
Mn2578     Mn  0.95358591  0.51049182  0.00442656     1.82050
O2579       O  0.56221133  0.96184917  0.01603043    -0.79900
O2580       O  0.55919713  0.50592269  0.08569596    -0.89290
C2581       C  0.92921082  0.48209983  0.07614085     1.11320
C2582       C  0.56082569  0.53654510  0.09860429     1.06040
O2583       O  0.90876548  0.49841780  0.47534030    -0.80830
O2584       O  0.50279168  0.51705268  0.03250295    -1.34530
O2585       O  0.93676974  0.96218332  0.44068713    -1.00050
C2586       C  0.98621130  0.86997766  0.05392433     1.04760
Mn2587     Mn  0.50793720  0.48724282  0.08345535     1.48570
O2588       O  0.98288633  0.88097438  0.51872073    -0.89240
Mn2589     Mn  0.97431355  0.99108124  0.41582036     1.49560
O2590       O  0.95859132  0.58381445  0.42800025    -0.93120
C2591       C  0.57049949  0.55613088  0.48866356     1.17950
C2592       C  0.93573639  0.56825405  0.40926400     1.10010
Mn2593     Mn  0.52722468  0.98973699  0.48812931     1.80970
O2594       O  0.95891484  0.96623763  0.08078031    -0.98270
Mn2595     Mn  0.50222641  0.57485586  0.45867310     1.49260
C2596       C  0.53963893  0.54258274  0.39352817     1.06530
Mn2597     Mn  0.97554815  0.93165920  0.04516461     1.49930
C2598       C  0.90134299  0.90943330  0.01506310     1.09430
O2599       O  0.99805924  0.94461745  0.43437675    -1.04070
O2600       O  0.48853614  0.53106088  0.11561685    -0.93740
C2601       C  0.52871709  0.93576908  0.42761632     1.20720
O2602       O  0.52700333  0.94320387  0.05870944    -1.04460
O2603       O  0.46828394  0.56210991  0.07020393    -0.91860
O2604       O  0.91901447  0.91822503  0.04188543    -0.91470
O2605       O  0.93885069  0.53524154  0.39990819    -0.91490
Mn2606     Mn  0.51128707  0.57113416  0.03737619     1.47860
O2607       O  0.92315086  0.50004974  0.04795694    -0.79970
C2608       C  0.90811836  0.97634654  0.45072026     1.13770
O2609       O  0.57252554  0.52343835  0.48040258    -0.78700
O2610       O  0.92712590  0.56107939  0.50723640    -0.78310
Mn2611     Mn  0.96387940  0.92282676  0.47051680     1.51060
O2612       O  0.97945701  0.89163679  0.07426182    -0.90670
O2613       O  0.47682120  0.58660550  0.50120020    -0.98190
O2614       O  0.91547180  0.90990134  0.48536323    -0.93200
C2615       C  0.94460874  0.58965628  0.50646981     1.11560
O2616       O  0.53859932  0.68771123  0.32022999    -0.89850
C2617       C  0.95650519  0.69966235  0.14365514     1.10190
O2618       O  0.98547159  0.73675165  0.28305382    -1.37660
O2619       O  0.53323175  0.68722586  0.16032299    -0.91330
O2620       O  0.52831674  0.74015380  0.34835926    -0.92000
O2621       O  0.54750783  0.80026293  0.29703118    -0.80820
O2622       O  0.53441544  0.68124104  0.24246833    -1.02910
C2623       C  0.55275466  0.81373958  0.19748551     1.20230
O2624       O  0.97626551  0.80038844  0.24375647    -1.37800
Mn2625     Mn  0.94876472  0.75290729  0.24233638     1.82050
O2626       O  0.55994673  0.78922578  0.21977566    -0.79900
O2627       O  0.54900991  0.74436211  0.15815809    -0.89290
C2628       C  0.92251032  0.78153038  0.17175183     1.11320
C2629       C  0.55114037  0.71340571  0.14604032     1.06040
O2630       O  0.90419614  0.76145012  0.27591860    -0.80830
O2631       O  0.49454844  0.74039374  0.21142641    -1.34530
O2632       O  0.93608710  0.78848798  0.31286021    -1.00050
C2633       C  0.48235354  0.88627633  0.22153210     1.04760
Mn2634     Mn  0.49986355  0.76809494  0.16061799     1.48570
O2635       O  0.96109260  0.88476567  0.24884226    -0.89240
Mn2636     Mn  0.97785311  0.76266772  0.33167523     1.49560
O2637       O  0.96182258  0.67062283  0.32143016    -0.93120
C2638       C  0.56434705  0.69592556  0.24292122     1.17950
C2639       C  0.94412869  0.68473168  0.34598045     1.10010
Mn2640     Mn  0.52323872  0.76596710  0.25312441     1.80970
O2641       O  0.95304145  0.79389442  0.16484197    -0.98270
Mn2642     Mn  0.49887358  0.67988325  0.28328404     1.49260
C2643       C  0.54747320  0.71197432  0.34140620     1.06530
Mn2644     Mn  0.97664640  0.82927567  0.19493879     1.49930
C2645       C  0.89954558  0.84846974  0.23064581     1.09430
O2646       O  0.99511139  0.81149864  0.31274262    -1.04070
O2647       O  0.47547488  0.72603439  0.13192100    -0.93740
C2648       C  0.52629681  0.81987449  0.31604886     1.20720
O2649       O  0.52399668  0.81188059  0.18008308    -1.04460
O2650       O  0.45136231  0.69502653  0.17608827    -0.91860
O2651       O  0.92347177  0.84804035  0.20658499    -0.91470
O2652       O  0.94855716  0.71745550  0.35494888    -0.91490
Mn2653     Mn  0.49633645  0.68413571  0.20602109     1.47860
O2654       O  0.91589055  0.76761627  0.20181412    -0.79970
C2655       C  0.90804053  0.77318117  0.30636860     1.13770
O2656       O  0.56658332  0.72752753  0.25514919    -0.78700
O2657       O  0.92010933  0.70798039  0.24069786    -0.78310
Mn2658     Mn  0.95345336  0.83203666  0.28375840     1.51060
O2659       O  0.00570677  0.86307489  0.22429681    -0.90670
O2660       O  0.96261927  0.66938425  0.24651814    -0.98190
O2661       O  0.90435800  0.83529296  0.26125049    -0.93200
C2662       C  0.92947268  0.67633464  0.24668539     1.11560
O2663       O  0.79177084  0.55451311  0.34610156    -0.89850
C2664       C  0.79897817  0.49109102  0.16026985     1.10190
O2665       O  0.74141145  0.51243075  0.30142761    -1.37660
O2666       O  0.81231755  0.56286720  0.18644668    -0.91330
O2667       O  0.73301646  0.55631475  0.36248288    -0.92000
O2668       O  0.69127455  0.58324392  0.30728241    -0.80820
O2669       O  0.80704552  0.55135916  0.26898384    -1.02910
C2670       C  0.68435715  0.59517952  0.21332843     1.20230
O2671       O  0.68200744  0.51500046  0.25826903    -1.37800
Mn2672     Mn  0.72479620  0.47943214  0.26023496     1.82060
O2673       O  0.70812374  0.59836482  0.23601190    -0.79900
O2674       O  0.75707331  0.58457224  0.17652677    -0.89290
C2675       C  0.70179818  0.96348941  0.18739731     1.11320
C2676       C  0.79040394  0.58505362  0.17042178     1.06040
O2677       O  0.70557227  0.93437255  0.29395035    -0.80830
O2678       O  0.74877682  0.52424110  0.22930497    -1.34530
O2679       O  0.68082398  0.96870828  0.32994394    -1.00050
C2680       C  0.59592070  0.53868861  0.24332049     1.04760
Mn2681     Mn  0.72820256  0.53819670  0.17779645     1.48570
O2682       O  0.59577489  0.51700569  0.27031176    -0.89240
Mn2683     Mn  0.70908098  0.50899260  0.34778102     1.49560
O2684       O  0.79306653  0.47022096  0.34116972    -0.93120
C2685       C  0.80159663  0.58357652  0.26978865     1.17950
C2686       C  0.78045100  0.46920663  0.37221058     1.10010
Mn2687     Mn  0.72387080  0.55586979  0.26880699     1.80970
O2688       O  0.69568205  0.49615007  0.18128230    -0.98270
Mn2689     Mn  0.79769596  0.51468756  0.30728416     1.49260
C2690       C  0.76448252  0.56988734  0.36045318     1.06530
Mn2691     Mn  0.65810556  0.52235848  0.20775996     1.49930
C2692       C  0.62389450  0.94701794  0.23514977     1.09430
O2693       O  0.66786140  0.53296877  0.32325249    -1.04070
O2694       O  0.77231874  0.51104473  0.14945464    -0.93740
C2695       C  0.66523175  0.56555583  0.32137089     1.20720
O2696       O  0.68468330  0.56660518  0.19628983    -1.04460
O2697       O  0.80138765  0.48172920  0.19228550    -0.91860
O2698       O  0.62884487  0.97323173  0.21273686    -0.91470
O2699       O  0.74876673  0.98090766  0.37926718    -0.91490
Mn2700     Mn  0.80541152  0.52084215  0.22831619     1.47860
O2701       O  0.70952080  0.95121411  0.21797192    -0.79970
C2702       C  0.69140258  0.93819233  0.32428503     1.13770
O2703       O  0.76891794  0.59355077  0.27510356    -0.78700
O2704       O  0.76551893  0.94418342  0.26196756    -0.78310
Mn2705     Mn  0.64434624  0.99453635  0.29731953     1.51060
O2706       O  0.62469867  0.55319696  0.23612446    -0.90670
O2707       O  0.80558565  0.48397444  0.26697991    -0.98190
O2708       O  0.63120382  0.94918951  0.26827122    -0.93200
C2709       C  0.79750023  0.45236840  0.26365627     1.11560
O2710       O  0.83660459  0.71400166  0.45467394    -0.89850
C2711       C  0.64859075  0.68025535  0.51198991     1.10190
O2712       O  0.78378206  0.75291711  0.50468635    -1.37660
O2713       O  0.68378598  0.68685431  0.44368481    -0.91330
O2714       O  0.84338584  0.77279445  0.46064618    -0.92000
O2715       O  0.78521964  0.81589205  0.43751067    -0.80820
O2716       O  0.76128212  0.69849005  0.46087411    -1.02910
C2717       C  0.68830875  0.82116417  0.43752433     1.20230
O2718       O  0.73156330  0.80762679  0.01158536    -1.37800
Mn2719     Mn  0.73877618  0.75916539  0.04039843     1.82050
O2720       O  0.71409653  0.80053216  0.43011910    -0.79900
O2721       O  0.66743715  0.74423572  0.43131564    -0.89290
C2722       C  0.66135127  0.76039448  0.05697008     1.11320
C2723       C  0.66985652  0.71157413  0.42297152     1.06040
O2724       O  0.76896443  0.77681983  0.08459028    -0.80830
O2725       O  0.71273596  0.74213305  0.49354873    -1.34530
O2726       O  0.80218836  0.80999947  0.05120874    -1.00050
C2727       C  0.70317794  0.89698553  0.49206262     1.04760
Mn2728     Mn  0.65982699  0.76058698  0.48145150     1.48570
O2729       O  0.73633710  0.88549291  0.49411140    -0.89240
Mn2730     Mn  0.82599307  0.78772220  0.00988853     1.49560
O2731       O  0.83254869  0.69974132  0.53717939    -0.93120
C2732       C  0.76236014  0.70592455  0.42961910     1.17950
C2733       C  0.86264889  0.71466565  0.03728267     1.10010
Mn2734     Mn  0.74893886  0.77632174  0.46474963     1.80970
O2735       O  0.65731496  0.77761847  0.02874421    -0.98270
Mn2736     Mn  0.79846317  0.69935591  0.49507718     1.49260
C2737       C  0.84502830  0.74522376  0.44210222     1.06530
Mn2738     Mn  0.67709766  0.82528295  0.01779604     1.49930
C2739       C  0.70923673  0.85786401  0.08340487     1.09430
O2740       O  0.79328327  0.82373876  0.48973049    -1.04070
O2741       O  0.63794302  0.70935128  0.49584701    -0.93740
C2742       C  0.79871245  0.83517546  0.46053682     1.20720
O2743       O  0.67039820  0.81371376  0.46571200    -1.04460
O2744       O  0.67971183  0.67715545  0.52470932    -0.91860
O2745       O  0.68460236  0.83739462  0.07177785    -0.91470
O2746       O  0.86537236  0.74891968  0.03148728    -0.91490
Mn2747     Mn  0.72022428  0.68664356  0.48889885     1.47860
O2748       O  0.69200160  0.75960860  0.07131378    -0.79970
C2749       C  0.79768077  0.79452805  0.07983061     1.13770
O2750       O  0.76117642  0.73946373  0.42107843    -0.78700
O2751       O  0.74546126  0.71200079  0.06946596    -0.78310
Mn2752     Mn  0.76749426  0.84560101  0.02604097     1.51060
O2753       O  0.68377223  0.87812818  0.00901385    -0.90670
O2754       O  0.75968131  0.68006788  0.52594346    -0.98190
O2755       O  0.74015578  0.86181640  0.06934461    -0.93200
C2756       C  0.75851265  0.68354693  0.05832001     1.11560
C2757       C  0.79613165  0.59787069  0.10585048    -0.15020
C2758       C  0.80071528  0.61002757  0.14068728     0.07130
C2759       C  0.79682533  0.64709186  0.14612146    -0.15020
C2760       C  0.78465148  0.67064453  0.11870703    -0.15020
C2761       C  0.77602151  0.65791934  0.08488711     0.07130
C2762       C  0.78397192  0.62160114  0.07812345    -0.15020
H2763       H  0.79790235  0.56920245  0.10104411     0.11120
H2764       H  0.79914974  0.65718546  0.17267192     0.11120
H2765       H  0.78005500  0.69873089  0.12473129     0.11120
H2766       H  0.77842834  0.61104314  0.05229394     0.11120
C2767       C  0.70942580  0.94647967  0.12599365    -0.15020
C2768       C  0.69743179  0.93742181  0.16008307     0.07130
C2769       C  0.68666313  0.90172452  0.16905204    -0.15020
C2770       C  0.68742288  0.87529598  0.14353190    -0.15020
C2771       C  0.70150007  0.88422828  0.11001136     0.07130
C2772       C  0.71298148  0.91971933  0.10176638    -0.15020
H2773       H  0.71881730  0.97344072  0.11896723     0.11120
H2774       H  0.67852253  0.89416194  0.19595728     0.11120
H2775       H  0.67950426  0.84785139  0.15053572     0.11120
H2776       H  0.72579987  0.92663990  0.07649862     0.11120
C2777       C  0.69586870  0.84437384  0.37335945    -0.15020
C2778       C  0.68063733  0.85009390  0.40768025     0.07130
C2779       C  0.66629626  0.88515384  0.41249675    -0.15020
C2780       C  0.66871305  0.91300685  0.38531948    -0.15020
C2781       C  0.68568305  0.90729115  0.35197130     0.07130
C2782       C  0.69852888  0.87206079  0.34649319    -0.15020
H2783       H  0.70747157  0.81824806  0.36742616     0.11120
H2784       H  0.65493546  0.89213021  0.43762687     0.11120
H2785       H  0.65822003  0.93964295  0.39099729     0.11120
H2786       H  0.71168184  0.86596624  0.32159568     0.11120
C2787       C  0.75084550  0.60878920  0.40920612    -0.15020
C2788       C  0.76818384  0.60507944  0.37678652     0.07130
C2789       C  0.78253927  0.63604510  0.35888089    -0.15020
C2790       C  0.77923225  0.67054169  0.37388195    -0.15020
C2791       C  0.76205580  0.67372904  0.40703589     0.07130
C2792       C  0.74778705  0.64210163  0.42386764    -0.15020
H2793       H  0.73912583  0.58562679  0.42330889     0.11120
H2794       H  0.79533441  0.63365483  0.33318946     0.11120
H2795       H  0.79049158  0.69404272  0.36015894     0.11120
H2796       H  0.73475498  0.64245475  0.44965344     0.11120
C2797       C  0.89979266  0.61315418  0.24967743    -0.15020
C2798       C  0.89793734  0.65082656  0.25227258     0.07130
C2799       C  0.86341928  0.66620362  0.26036281    -0.15020
C2800       C  0.83233341  0.64518036  0.26601764    -0.15020
C2801       C  0.83422798  0.60758667  0.26426467     0.07130
C2802       C  0.86855841  0.59197788  0.25581374    -0.15020
H2803       H  0.92520470  0.60008532  0.24327194     0.11120
H2804       H  0.86016175  0.69515894  0.26256904     0.11120
H2805       H  0.80686124  0.65845275  0.27181329     0.11120
H2806       H  0.87137294  0.56297047  0.25367783     0.11120
C2807       C  0.83615715  0.86357480  0.23833522    -0.15020
C2808       C  0.87062302  0.87421736  0.22769245     0.07130
C2809       C  0.88102305  0.91045984  0.22975809    -0.15020
C2810       C  0.85784480  0.93565445  0.24357465    -0.15020
C2811       C  0.82363117  0.92509734  0.25466835     0.07130
C2812       C  0.81255514  0.88904791  0.25170351    -0.15020
H2813       H  0.82863061  0.83534153  0.23872102     0.11120
H2814       H  0.90833971  0.91897710  0.22444586     0.11120
H2815       H  0.86672248  0.96329154  0.24567452     0.11120
H2816       H  0.78585595  0.88050220  0.26010573     0.11120
C2817       C  0.61552487  0.67560135  0.20091717    -0.15020
C2818       C  0.59750920  0.67399757  0.23426304     0.07130
C2819       C  0.61022116  0.64887694  0.25941958    -0.15020
C2820       C  0.63796497  0.62476700  0.25087427    -0.15020
C2821       C  0.65296208  0.62196109  0.21671019     0.07130
C2822       C  0.64260701  0.64941697  0.19182665    -0.15020
H2823       H  0.60913105  0.69759258  0.18253554     0.11120
H2824       H  0.59875457  0.64805548  0.28598260     0.11120
H2825       H  0.64754197  0.60716504  0.27124995     0.11120
H2826       H  0.65633199  0.65147545  0.16639076     0.11120
C2827       C  0.58689454  0.87230687  0.17601634    -0.15020
C2828       C  0.57507835  0.84719278  0.20239416     0.07130
C2829       C  0.58507911  0.85367061  0.23766592    -0.15020
C2830       C  0.60058357  0.88549594  0.24755232    -0.15020
C2831       C  0.60854886  0.91261640  0.22235382     0.07130
C2832       C  0.60258650  0.90542657  0.18599348    -0.15020
H2833       H  0.58274611  0.86717834  0.14828591     0.11120
H2834       H  0.58061752  0.83405814  0.25856147     0.11120
H2835       H  0.60619472  0.88875731  0.27540646     0.11120
H2836       H  0.60974273  0.92533858  0.16542127     0.11120
C2837       C  0.89225680  0.80582005  0.11574283    -0.15020
C2838       C  0.89090879  0.78557260  0.14772261     0.07130
C2839       C  0.85771345  0.76956921  0.15821306    -0.15020
C2840       C  0.82683532  0.77356398  0.13721363    -0.15020
C2841       C  0.82815783  0.79394526  0.10528972     0.07130
C2842       C  0.86113425  0.81042636  0.09510291    -0.15020
H2843       H  0.91728389  0.81782514  0.10660844     0.11120
H2844       H  0.85550986  0.75346327  0.18273455     0.11120
H2845       H  0.80223169  0.76015095  0.14561773     0.11120
H2846       H  0.86325372  0.82608711  0.07043441     0.11120
C2847       C  0.56657766  0.74005701  0.08784966    -0.15020
C2848       C  0.57256213  0.71146918  0.11296883     0.07130
C2849       C  0.60607387  0.69370080  0.11288449    -0.15020
C2850       C  0.63538541  0.70967673  0.09478460    -0.15020
C2851       C  0.63040965  0.74183995  0.07410401     0.07130
C2852       C  0.59527214  0.75516903  0.06858390    -0.15020
H2853       H  0.54056974  0.75380909  0.08666261     0.11120
H2854       H  0.61022238  0.66949289  0.12916152     0.11120
H2855       H  0.66196140  0.69736245  0.09745020     0.11120
H2856       H  0.59038584  0.77895892  0.05155685     0.11120
C2857       C  0.59453548  0.67501465  0.37373590    -0.15020
C2858       C  0.58339848  0.70773451  0.35672882     0.07130
C2859       C  0.60808256  0.73564120  0.35149434    -0.15020
C2860       C  0.64182859  0.73287048  0.36723499    -0.15020
C2861       C  0.65006926  0.70333786  0.39061766     0.07130
C2862       C  0.62806643  0.67278880  0.39068407    -0.15020
H2863       H  0.57641541  0.65226214  0.37597561     0.11120
H2864       H  0.60076792  0.76009062  0.33635322     0.11120
H2865       H  0.65918475  0.75626440  0.36549075     0.11120
H2866       H  0.63472666  0.64903502  0.40706925     0.11120
C2867       C  0.86962267  0.73226832  0.34457127    -0.15020
C2868       C  0.88136823  0.76730841  0.33485822     0.07130
C2869       C  0.87518205  0.79523084  0.35794964    -0.15020
C2870       C  0.86144718  0.78770695  0.39166048    -0.15020
C2871       C  0.85562705  0.75182723  0.40421557     0.07130
C2872       C  0.85743651  0.72439625  0.37948404    -0.15020
H2873       H  0.87324646  0.71044517  0.32647229     0.11120
H2874       H  0.88284324  0.82270009  0.35056912     0.11120
H2875       H  0.85616950  0.81044237  0.40780815     0.11120
H2876       H  0.85052043  0.69694675  0.38738499     0.11120
C2877       C  0.81734224  0.89582373  0.47239666    -0.15020
C2878       C  0.82730663  0.86223528  0.45829142     0.07130
C2879       C  0.86023400  0.84742009  0.47072330    -0.15020
C2880       C  0.87312287  0.85622485  0.00384593    -0.15020
C2881       C  0.86681932  0.89131460  0.01525419     0.07130
C2882       C  0.83745817  0.91070732  0.49995238    -0.15020
H2883       H  0.79300101  0.90958562  0.46329875     0.11120
H2884       H  0.87362582  0.82534048  0.45844381     0.11120
H2885       H  0.89639996  0.84093407  0.01383544     0.11120
H2886       H  0.83161640  0.93805487  0.50770770     0.11110
C2887       C  0.93879091  0.65808479  0.00347640    -0.15020
C2888       C  0.92854321  0.62422223  0.01840946     0.07130
C2889       C  0.90354546  0.62340324  0.54651057    -0.15020
C2890       C  0.88708775  0.65524777  0.05763750    -0.15020
C2891       C  0.89354701  0.68872929  0.03967870     0.07130
C2892       C  0.92095654  0.69007655  0.01359168    -0.15020
H2893       H  0.95869578  0.65948720  0.98227557     0.11120
H2894       H  0.89610555  0.59791187  0.55948401     0.11120
H2895       H  0.86609290  0.65308672  0.57778851     0.11120
H2896       H  0.92603303  0.71506477  0.99859430     0.11120
C2897       C  0.59163390  0.89055141  0.02134186    -0.15020
C2898       C  0.58867723  0.91671789  0.04726195     0.07130
C2899       C  0.62136784  0.93320175  0.05683597    -0.15020
C2900       C  0.65526566  0.92577213  0.04034601    -0.15020
C2901       C  0.66180319  0.89726708  0.01444576     0.07130
C2902       C  0.62397170  0.88433163  0.50257974    -0.15020
H2903       H  0.56714774  0.87943561  0.51077775     0.11120
H2904       H  0.61985375  0.95633626  0.07364874     0.11120
H2905       H  0.67710797  0.94375295  0.04558722     0.11120
H2906       H  0.62240727  0.86645957  0.48056862     0.11120
C2907       C  0.62213455  0.58231678  0.01799288    -0.15020
C2908       C  0.60027150  0.58096389  0.48787919     0.07130
C2909       C  0.59475260  0.61225283  0.46637119    -0.15020
C2910       C  0.60754587  0.64513390  0.47667651    -0.15020
C2911       C  0.62882334  0.64701151  0.50704242     0.07130
C2912       C  0.63696971  0.61520350  0.02721198    -0.15020
H2913       H  0.62533218  0.55877542  0.03574013     0.11120
H2914       H  0.57685761  0.61208368  0.44374603     0.11120
H2915       H  0.60122723  0.66908037  0.46039338     0.11120
H2916       H  0.65409940  0.61599570  0.05037959     0.11120
C2917       C  0.84145569  0.48623253  0.44642790    -0.15020
C2918       C  0.87281808  0.96784433  0.43512052     0.07130
C2919       C  0.86980409  0.94221085  0.40883447    -0.15020
C2920       C  0.83687011  0.93794094  0.39164569    -0.15020
C2921       C  0.80657955  0.95946170  0.40028151     0.07130
C2922       C  0.80857034  0.48186306  0.42934515    -0.15020
H2923       H  0.84265356  0.50554614  0.46731193     0.11120
H2924       H  0.89322409  0.92693286  0.40027906     0.11120
H2925       H  0.83601181  0.92047280  0.36918580     0.11120
H2926       H  0.78592247  0.49910305  0.43625872     0.11120
C2927       C  0.57025482  0.56357396  0.33843606    -0.15020
C2928       C  0.57235776  0.55040334  0.37338534     0.07130
C2929       C  0.60409476  0.55582698  0.39273665    -0.15020
C2930       C  0.63410874  0.57185496  0.37660765    -0.15020
C2931       C  0.63396607  0.58010170  0.34003299     0.07130
C2932       C  0.60074390  0.57842277  0.32204075    -0.15020
H2933       H  0.54525445  0.56215064  0.32379091     0.11120
H2934       H  0.60565838  0.54744136  0.42049855     0.11120
H2935       H  0.65910667  0.57241027  0.39138904     0.11120
H2936       H  0.59876205  0.58418455  0.29410263     0.11120
C2937       C  0.56669758  0.57168569  0.15488247    -0.15020
C2938       C  0.56384207  0.53854604  0.13820695     0.07130
C2939       C  0.55897368  0.50704392  0.16015568    -0.15020
C2940       C  0.56070117  0.50818523  0.19741063    -0.15020
C2941       C  0.56956913  0.54037497  0.21362040     0.07130
C2942       C  0.56921814  0.57258284  0.19208528    -0.15020
H2943       H  0.56862190  0.59672167  0.13916930     0.11120
H2944       H  0.55444071  0.98114993  0.14851193     0.11120
H2945       H  0.55947214  0.98306636  0.21302918     0.11120
H2946       H  0.57544647  0.59810168  0.20370603     0.11120
C2947       C  0.89783949  0.47713349  0.13575559    -0.15020
C2948       C  0.89661453  0.47659885  0.09880353     0.07130
C2949       C  0.86235599  0.47738607  0.08202944    -0.15020
C2950       C  0.83023631  0.48115688  0.10145500    -0.15020
C2951       C  0.83151596  0.48334495  0.13829870     0.07130
C2952       C  0.86565103  0.48045758  0.15522956    -0.15020
H2953       H  0.92352713  0.47734816  0.14932841     0.11120
H2954       H  0.86049811  0.47691520  0.05334195     0.11120
H2955       H  0.80467109  0.48318019  0.08767842     0.11120
H2956       H  0.86775120  0.48299051  0.18364595     0.11120
C2957       C  0.90209321  0.62483400  0.41638110    -0.15020
C2958       C  0.90635529  0.59284547  0.39693081     0.07130
C2959       C  0.90157523  0.59590251  0.36043604    -0.15020
C2960       C  0.90753680  0.62944679  0.34371009    -0.15020
C2961       C  0.91825621  0.65934650  0.36338911     0.07130
C2962       C  0.91191577  0.65797792  0.40002401    -0.15020
H2963       H  0.90185856  0.62297653  0.44514106     0.11120
H2964       H  0.90197959  0.57206768  0.34452960     0.11120
H2965       H  0.91089647  0.62991711  0.31549136     0.11120
H2966       H  0.91831718  0.68066940  0.41613862     0.11120
C2967       C  0.50636498  0.87956561  0.39748394    -0.15020
C2968       C  0.53487342  0.90432688  0.40090303     0.07130
C2969       C  0.56435206  0.89873640  0.37677780    -0.15020
C2970       C  0.56394649  0.87088149  0.35023603    -0.15020
C2971       C  0.53399598  0.84726353  0.34635228     0.07130
C2972       C  0.50597368  0.85251253  0.37172002    -0.15020
H2973       H  0.48300487  0.88147069  0.41482199     0.11120
H2974       H  0.58721080  0.91661617  0.37742492     0.11120
H2975       H  0.58663405  0.86872596  0.33221910     0.11120
H2976       H  0.48223642  0.83573223  0.37135773     0.11120
C2977       C  0.51187935  0.89333534  0.12458865    -0.15020
C2978       C  0.48005275  0.88704455  0.09897404     0.07130
C2979       C  0.94575576  0.88668684  0.12373386    -0.15020
C2980       C  0.94518109  0.89639486  0.16020868    -0.15020
C2981       C  0.47662958  0.89989194  0.18138819     0.07130
C2982       C  0.50843242  0.90260736  0.16086635    -0.15020
H2983       H  0.53870633  0.89319486  0.11309240     0.11120
H2984       H  0.92003918  0.88154015  0.11151230     0.11120
H2985       H  0.91875211  0.89919060  0.17154484     0.11120
H2986       H  0.53217242  0.91022376  0.17468694     0.11120
C2987       C  0.49252732  0.62118630  0.10382833    -0.15020
C2988       C  0.97059565  0.59391542  0.11925212     0.07130
C2989       C  0.93776743  0.60373234  0.13492507    -0.15020
C2990       C  0.92877026  0.64033101  0.13749785    -0.15020
C2991       C  0.95233847  0.66724819  0.12376086     0.07130
C2992       C  0.48257103  0.65714276  0.10437291    -0.15020
H2993       H  0.51619483  0.61496956  0.08849461     0.11120
H2994       H  0.91888633  0.58327554  0.14419778     0.11120
H2995       H  0.90496783  0.64775834  0.15260679     0.11120
H2996       H  0.50095334  0.67714124  0.09315605     0.11120
O2997       O  0.53391528  0.56558440  0.91671333    -0.89850
C2998       C  0.97374777  0.55957050  0.60240994     1.10190
O2999       O  0.48828971  0.52000969  0.96103990    -1.37660
O3000       O  0.55098982  0.56417877  0.57963356    -0.91330
O3001       O  0.52014737  0.01463195  0.88873189    -0.92000
O3002       O  0.55081270  0.95506781  0.94416360    -0.80820
O3003       O  0.54116630  0.56978054  0.99424580    -1.02910
C3004       C  0.55661635  0.94137850  0.54190335     1.20230
O3005       O  0.97822192  0.96206266  0.50197934    -1.37800
Mn3006     Mn  0.95358714  0.51049256  0.50442638     1.82050
O3007       O  0.56221290  0.96184895  0.51603103    -0.79900
O3008       O  0.55920090  0.50592321  0.58569513    -0.89290
C3009       C  0.92921135  0.48210079  0.57614043     1.11320
C3010       C  0.56082904  0.53654565  0.59860335     1.06040
O3011       O  0.90876414  0.49841702  0.97534057    -0.80830
O3012       O  0.50279355  0.51705263  0.53250413    -1.34530
O3013       O  0.93676936  0.96218468  0.94068657    -1.00050
C3014       C  0.98620963  0.86997747  0.55392624     1.04760
Mn3015     Mn  0.50794136  0.48724224  0.58345601     1.48570
O3016       O  0.98288695  0.88097501  0.01871903    -0.89240
Mn3017     Mn  0.97431280  0.99108308  0.91581975     1.49560
O3018       O  0.95858885  0.58381381  0.92800076    -0.93120
C3019       C  0.57049925  0.55612879  0.98866324     1.17950
C3020       C  0.93573423  0.56825330  0.90926422     1.10010
Mn3021     Mn  0.52722376  0.98973725  0.98812816     1.80970
O3022       O  0.95891385  0.96623777  0.58078090    -0.98270
Mn3023     Mn  0.50222707  0.57485391  0.95867094     1.49260
C3024       C  0.53963958  0.54257852  0.89352695     1.06530
Mn3025     Mn  0.97554694  0.93165880  0.54516572     1.49930
C3026       C  0.90134235  0.90943377  0.51506439     1.09430
O3027       O  0.99805869  0.94461910  0.93437531    -1.04070
O3028       O  0.48854017  0.53105957  0.61561857    -0.93740
C3029       C  0.52871668  0.93576842  0.92761576     1.20720
O3030       O  0.52700516  0.94320212  0.55870957    -1.04460
O3031       O  0.46828628  0.56210920  0.57020677    -0.91860
O3032       O  0.91901339  0.91822609  0.54188660    -0.91470
O3033       O  0.93884908  0.53524094  0.89990806    -0.91490
Mn3034     Mn  0.51128817  0.57113429  0.53737762     1.47860
O3035       O  0.92315182  0.50005084  0.54795652    -0.79970
C3036       C  0.90811789  0.97634756  0.95071998     1.13770
O3037       O  0.57252498  0.52343608  0.98040270    -0.78700
O3038       O  0.92712452  0.56107857  0.00723756    -0.78310
Mn3039     Mn  0.96387947  0.92282786  0.97051560     1.51060
O3040       O  0.97945403  0.89163643  0.57426326    -0.90670
O3041       O  0.47682150  0.58660552  0.00119734    -0.98190
O3042       O  0.91547197  0.90990193  0.98536176    -0.93200
C3043       C  0.94460733  0.58965548  0.00647083     1.11560
O3044       O  0.53860023  0.68771037  0.82022880    -0.89850
C3045       C  0.95650573  0.69966334  0.64365600     1.10190
O3046       O  0.98547090  0.73675157  0.78305551    -1.37660
O3047       O  0.53323304  0.68722673  0.66032241    -0.91330
O3048       O  0.52831705  0.74015226  0.84835908    -0.92000
O3049       O  0.54750737  0.80026028  0.79703310    -0.80820
O3050       O  0.53441640  0.68124110  0.74246728    -1.02910
C3051       C  0.55275350  0.81374154  0.69748448     1.20230
O3052       O  0.97626656  0.80038795  0.74375745    -1.37800
Mn3053     Mn  0.94876495  0.75290721  0.74233736     1.82050
O3054       O  0.55994665  0.78922887  0.71977586    -0.79900
O3055       O  0.54901020  0.74436330  0.65815751    -0.89290
C3056       C  0.92251268  0.78153201  0.67175298     1.11320
C3057       C  0.55114152  0.71340682  0.64604000     1.06040
O3058       O  0.90419577  0.76145015  0.77591896    -0.80830
O3059       O  0.49454892  0.74039396  0.71142576    -1.34530
O3060       O  0.93608629  0.78848704  0.81286165    -1.00050
C3061       C  0.48235167  0.88627534  0.72153236     1.04760
Mn3062     Mn  0.49986333  0.76809505  0.66061735     1.48570
O3063       O  0.96109596  0.88476334  0.74884361    -0.89240
Mn3064     Mn  0.97785262  0.76266725  0.83167679     1.49560
O3065       O  0.96182068  0.67062226  0.82143079    -0.93120
C3066       C  0.56434793  0.69592581  0.74292024     1.17950
C3067       C  0.94412710  0.68473097  0.84598133     1.10010
Mn3068     Mn  0.52323900  0.76596706  0.75312419     1.80970
O3069       O  0.95304425  0.79389580  0.66484386    -0.98270
Mn3070     Mn  0.49887459  0.67988254  0.78328288     1.49260
C3071       C  0.54747380  0.71197308  0.84140552     1.06530
Mn3072     Mn  0.97665052  0.82927658  0.69494075     1.49930
C3073       C  0.89954772  0.84847012  0.73064665     1.09430
O3074       O  0.99511154  0.81149849  0.81274397    -1.04070
O3075       O  0.47547563  0.72603397  0.63192004    -0.93740
C3076       C  0.52629655  0.81987274  0.81605014     1.20720
O3077       O  0.52399529  0.81188098  0.68008268    -1.04460
O3078       O  0.45136306  0.69502674  0.67608749    -0.91860
O3079       O  0.92347530  0.84804119  0.70658706    -0.91470
O3080       O  0.94855626  0.71745462  0.85495023    -0.91490
Mn3081     Mn  0.49633735  0.68413590  0.70602017     1.47860
O3082       O  0.91589222  0.76761696  0.70181470    -0.79970
C3083       C  0.90803982  0.77318022  0.80636943     1.13770
O3084       O  0.56658398  0.72752789  0.75514796    -0.78700
O3085       O  0.92010901  0.70798065  0.74069839    -0.78310
Mn3086     Mn  0.95345357  0.83203516  0.78375959     1.51060
O3087       O  0.00571376  0.86307740  0.72429694    -0.90670
O3088       O  0.96261866  0.66938419  0.74651895    -0.98190
O3089       O  0.90435854  0.83529205  0.76125100    -0.93200
C3090       C  0.92947217  0.67633481  0.74668581     1.11560
O3091       O  0.79177000  0.55451261  0.84610242    -0.89850
C3092       C  0.79898011  0.49109097  0.66027044     1.10190
O3093       O  0.74141150  0.51243134  0.80142776    -1.37660
O3094       O  0.81232020  0.56286749  0.68644671    -0.91330
O3095       O  0.73301538  0.55631391  0.86248331    -0.92000
O3096       O  0.69127440  0.58324413  0.80728247    -0.80820
O3097       O  0.80704597  0.55135944  0.76898480    -1.02910
C3098       C  0.68436024  0.59518195  0.71332812     1.20230
O3099       O  0.68200895  0.51500251  0.75826687    -1.37800
Mn3100     Mn  0.72479730  0.47943365  0.76023464     1.82060
O3101       O  0.70812577  0.59836666  0.73601271    -0.79900
O3102       O  0.75707657  0.58457393  0.67652842    -0.89290
C3103       C  0.70179812  0.96349060  0.68739722     1.11320
C3104       C  0.79040677  0.58505434  0.67042199     1.06040
O3105       O  0.70557389  0.93437487  0.79395074    -0.80830
O3106       O  0.74877861  0.52424244  0.72930517    -1.34530
O3107       O  0.68082381  0.96870969  0.82994423    -1.00050
C3108       C  0.59592250  0.53869123  0.74331720     1.04760
Mn3109     Mn  0.72820607  0.53819875  0.67779625     1.48570
O3110       O  0.59577709  0.51700855  0.77030860    -0.89240
Mn3111     Mn  0.70907999  0.50899218  0.84778050     1.49560
O3112       O  0.79306601  0.47022094  0.84117042    -0.93120
C3113       C  0.80159707  0.58357678  0.76978973     1.17950
C3114       C  0.78044971  0.46920607  0.87221102     1.10010
Mn3115     Mn  0.72387176  0.55587082  0.76880719     1.80970
O3116       O  0.69568618  0.49615192  0.68128005    -0.98270
Mn3117     Mn  0.79769589  0.51468766  0.80728498     1.49260
C3118       C  0.76448147  0.56988649  0.86045392     1.06530
Mn3119     Mn  0.65810940  0.52236234  0.70775603     1.49930
C3120       C  0.62389421  0.94702025  0.73514849     1.09430
O3121       O  0.66786112  0.53296860  0.82325143    -1.04070
O3122       O  0.77232173  0.51104602  0.64945524    -0.93740
C3123       C  0.66523153  0.56555567  0.82137045     1.20720
O3124       O  0.68468739  0.56660823  0.69628863    -1.04460
O3125       O  0.80138966  0.48172948  0.69228621    -0.91860
O3126       O  0.62884484  0.97323410  0.71273594    -0.91470
O3127       O  0.74876669  0.98090933  0.87926675    -0.91490
Mn3128     Mn  0.80541305  0.52084262  0.72831690     1.47860
O3129       O  0.70952046  0.95121553  0.71797197    -0.79970
C3130       C  0.69140407  0.93819437  0.82428538     1.13770
O3131       O  0.76891857  0.59355118  0.77510515    -0.78700
O3132       O  0.76551911  0.94418426  0.76196646    -0.78310
Mn3133     Mn  0.64434646  0.99453765  0.79731901     1.51060
O3134       O  0.62470034  0.55319969  0.73611971    -0.90670
O3135       O  0.80558628  0.48397485  0.76698077    -0.98190
O3136       O  0.63120418  0.94919112  0.76826998    -0.93200
C3137       C  0.79750062  0.45236887  0.76365727     1.11560
O3138       O  0.83660293  0.71399999  0.95467465    -0.89850
C3139       C  0.64858884  0.68025420  0.01198980     1.10190
O3140       O  0.78378059  0.75291582  0.00468750    -1.37660
O3141       O  0.68378505  0.68685250  0.94368530    -0.91330
O3142       O  0.84338376  0.77279283  0.96064656    -0.92000
O3143       O  0.78521789  0.81588981  0.93751081    -0.80820
O3144       O  0.76128071  0.69848813  0.96087554    -1.02910
C3145       C  0.68831119  0.82116219  0.93752483     1.20230
O3146       O  0.73156543  0.80762839  0.51158541    -1.37800
Mn3147     Mn  0.73877821  0.75916638  0.54039794     1.82050
O3148       O  0.71409466  0.80052500  0.93012016    -0.79900
O3149       O  0.66743589  0.74423383  0.93131552    -0.89290
C3150       C  0.66135354  0.76039547  0.55697060     1.11320
C3151       C  0.66985588  0.71157219  0.92297160     1.06040
O3152       O  0.76896707  0.77681969  0.58459010    -0.80830
O3153       O  0.71273442  0.74213121  0.99354944    -1.34530
O3154       O  0.80219089  0.80999936  0.55120879    -1.00050
C3155       C  0.70317393  0.89698230  0.99205920     1.04760
Mn3156     Mn  0.65982566  0.76058594  0.98145108     1.48570
O3157       O  0.73633328  0.88548988  0.99410728    -0.89240
Mn3158     Mn  0.82599502  0.78772304  0.50988812     1.49560
O3159       O  0.83254755  0.69974021  0.03718033    -0.93120
C3160       C  0.76235901  0.70592239  0.92962056     1.17950
C3161       C  0.86265023  0.71466630  0.53728192     1.10010
Mn3162     Mn  0.74893754  0.77631912  0.96475054     1.80970
O3163       O  0.65731708  0.77761951  0.52874483    -0.98270
Mn3164     Mn  0.79846172  0.69935452  0.99507840     1.49260
C3165       C  0.84502620  0.74522211  0.94210261     1.06530
Mn3166     Mn  0.67709965  0.82528411  0.51779636     1.49930
C3167       C  0.70923984  0.85786428  0.58340600     1.09430
O3168       O  0.79328125  0.82373737  0.98973032    -1.04070
O3169       O  0.63794124  0.70935010  0.99584660    -0.93740
C3170       C  0.79871068  0.83517366  0.96053664     1.20720
O3171       O  0.67039759  0.81371341  0.96571110    -1.04460
O3172       O  0.67970968  0.67715456  0.02470989    -0.91860
O3173       O  0.68460482  0.83739624  0.57177801    -0.91470
O3174       O  0.86537415  0.74892025  0.53148650    -0.91490
Mn3175     Mn  0.72022269  0.68664195  0.98889989     1.47860
O3176       O  0.69200402  0.75960938  0.57131396    -0.79970
C3177       C  0.79768348  0.79452784  0.57983057     1.13770
O3178       O  0.76117590  0.73946138  0.92107975    -0.78700
O3179       O  0.74546327  0.71200134  0.56946499    -0.78310
Mn3180     Mn  0.76749715  0.84560172  0.52604236     1.51060
O3181       O  0.68377447  0.87812903  0.50901282    -0.90670
O3182       O  0.75967965  0.68006694  0.02594475    -0.98190
O3183       O  0.74015941  0.86181575  0.56934670    -0.93200
C3184       C  0.75851435  0.68354743  0.55831882     1.11560
C3185       C  0.79613154  0.59787021  0.60584989    -0.15020
C3186       C  0.80071720  0.61002750  0.64068633     0.07130
C3187       C  0.79682825  0.64709202  0.64611993    -0.15020
C3188       C  0.78465418  0.67064464  0.61870548    -0.15020
C3189       C  0.77602295  0.65791935  0.58488591     0.07130
C3190       C  0.78397173  0.62160067  0.57812277    -0.15020
H3191       H  0.79790105  0.56920183  0.60104394     0.11120
H3192       H  0.79915385  0.65718603  0.67267012     0.11120
H3193       H  0.78005877  0.69873124  0.62472946     0.11120
H3194       H  0.77842692  0.61104242  0.55229363     0.11120
C3195       C  0.70942813  0.94648012  0.62599419    -0.15020
C3196       C  0.69743281  0.93742265  0.66008322     0.07130
C3197       C  0.68666464  0.90172527  0.66905243    -0.15020
C3198       C  0.68742524  0.87529645  0.64353262    -0.15020
C3199       C  0.70150340  0.88422849  0.61001245     0.07130
C3200       C  0.71298532  0.91971937  0.60176757    -0.15020
H3201       H  0.71881942  0.97344120  0.61896767     0.11120
H3202       H  0.67852331  0.89416296  0.69595754     0.11120
H3203       H  0.67950637  0.84785194  0.65053640     0.11120
H3204       H  0.72580452  0.92663969  0.57650012     0.11120
C3205       C  0.69590186  0.84438318  0.87336718    -0.15020
C3206       C  0.68064880  0.85009492  0.90768076     0.07130
C3207       C  0.66628605  0.88514752  0.91249059    -0.15020
C3208       C  0.66870033  0.91300126  0.88531320    -0.15020
C3209       C  0.68568879  0.90729311  0.85197216     0.07130
C3210       C  0.69855910  0.87207034  0.84650167    -0.15020
H3211       H  0.70752204  0.81826379  0.86743797     0.11120
H3212       H  0.65490825  0.89211773  0.93761557     0.11120
H3213       H  0.65818908  0.93963195  0.89098499     0.11120
H3214       H  0.71172839  0.86598220  0.82161059     0.11120
C3215       C  0.75084517  0.60878726  0.90920753    -0.15020
C3216       C  0.76818272  0.60507820  0.87678748     0.07130
C3217       C  0.78253728  0.63604411  0.85888163    -0.15020
C3218       C  0.77923030  0.67054041  0.87388305    -0.15020
C3219       C  0.76205478  0.67372706  0.90703747     0.07130
C3220       C  0.74778667  0.64209945  0.92386936    -0.15020
H3221       H  0.73912609  0.58562455  0.92331031     0.11120
H3222       H  0.79533169  0.63365425  0.83318980     0.11120
H3223       H  0.79048891  0.69404174  0.86015994     0.11120
H3224       H  0.73475494  0.64245231  0.94965536     0.11120
C3225       C  0.89979245  0.61315448  0.74967753    -0.15020
C3226       C  0.89793691  0.65082683  0.75227272     0.07130
C3227       C  0.86341889  0.66620387  0.76036292    -0.15020
C3228       C  0.83233323  0.64518051  0.76601809    -0.15020
C3229       C  0.83422812  0.60758686  0.76426535     0.07130
C3230       C  0.86855841  0.59197809  0.75581409    -0.15020
H3231       H  0.92520454  0.60008573  0.74327196     0.11120
H3232       H  0.86016125  0.69515919  0.76256902     0.11120
H3233       H  0.80686102  0.65845277  0.77181387     0.11120
H3234       H  0.87137303  0.56297069  0.75367824     0.11120
C3235       C  0.83615857  0.86357620  0.73833160    -0.15020
C3236       C  0.87062572  0.87421858  0.72769295     0.07130
C3237       C  0.88102609  0.91046065  0.72976168    -0.15020
C3238       C  0.85784674  0.93565499  0.74357726    -0.15020
C3239       C  0.82363166  0.92509811  0.75466672     0.07130
C3240       C  0.81255538  0.88904913  0.75169854    -0.15020
H3241       H  0.82863149  0.83534315  0.73871495     0.11120
H3242       H  0.90834330  0.91897765  0.72445182     0.11120
H3243       H  0.86672468  0.96329173  0.74567951     0.11120
H3244       H  0.78585514  0.88050349  0.76009739     0.11120
C3245       C  0.61552697  0.67560298  0.70091696    -0.15020
C3246       C  0.59751027  0.67399803  0.73426227     0.07130
C3247       C  0.61022150  0.64887660  0.75941844    -0.15020
C3248       C  0.63796593  0.62476722  0.75087339    -0.15020
C3249       C  0.65296455  0.62196288  0.71670969     0.07130
C3250       C  0.64260975  0.64941923  0.69182654    -0.15020
H3251       H  0.60913335  0.69759460  0.68253567     0.11120
H3252       H  0.59875390  0.64805415  0.78598104     0.11120
H3253       H  0.64754194  0.60716431  0.77124869     0.11120
H3254       H  0.65633540  0.65147861  0.66639104     0.11120
C3255       C  0.58689798  0.87230686  0.67601473    -0.15020
C3256       C  0.57507412  0.84719685  0.70239312     0.07130
C3257       C  0.58506465  0.85368007  0.73766636    -0.15020
C3258       C  0.60057066  0.88550447  0.74755217    -0.15020
C3259       C  0.60854641  0.91261988  0.72235233     0.07130
C3260       C  0.60259032  0.90542670  0.68599153    -0.15020
H3261       H  0.58275533  0.86717533  0.64828398     0.11120
H3262       H  0.58059282  0.83407323  0.75856337     0.11120
H3263       H  0.60617405  0.88876945  0.77540724     0.11120
H3264       H  0.60975268  0.92533574  0.66541875     0.11120
C3265       C  0.89225933  0.80582118  0.61574334    -0.15020
C3266       C  0.89091131  0.78557417  0.64772335     0.07130
C3267       C  0.85771596  0.76957049  0.65821360    -0.15020
C3268       C  0.82683796  0.77356458  0.63721390    -0.15020
C3269       C  0.82816044  0.79394557  0.60528987     0.07130
C3270       C  0.86113677  0.81042705  0.59510326    -0.15020
H3271       H  0.91728646  0.81782599  0.60660879     0.11120
H3272       H  0.85551222  0.75346469  0.68273516     0.11120
H3273       H  0.80223446  0.76015126  0.64561791     0.11120
H3274       H  0.86325617  0.82608765  0.57043473     0.11120
C3275       C  0.56657980  0.74005842  0.58784976    -0.15020
C3276       C  0.57256395  0.71147051  0.61296890     0.07130
C3277       C  0.60607563  0.69370200  0.61288484    -0.15020
C3278       C  0.63538739  0.70967782  0.59478515    -0.15020
C3279       C  0.63041189  0.74184113  0.57410463     0.07130
C3280       C  0.59527447  0.75517039  0.56858432    -0.15020
H3281       H  0.54057191  0.75381056  0.58666246     0.11120
H3282       H  0.61022393  0.66949402  0.62916186     0.11120
H3283       H  0.66196329  0.69736339  0.59745082     0.11120
H3284       H  0.59038837  0.77896032  0.55155728     0.11120
C3285       C  0.59453575  0.67501299  0.87373513    -0.15020
C3286       C  0.58339901  0.70773302  0.85672821     0.07130
C3287       C  0.60808344  0.73563939  0.85149361    -0.15020
C3288       C  0.64182948  0.73286828  0.86723426    -0.15020
C3289       C  0.65006967  0.70333568  0.89061716     0.07130
C3290       C  0.62806669  0.67278677  0.89068329    -0.15020
H3291       H  0.57641548  0.65226063  0.87597474     0.11120
H3292       H  0.60076908  0.76008886  0.83635245     0.11120
H3293       H  0.65918589  0.75626204  0.86549010     0.11120
H3294       H  0.63472671  0.64903288  0.90706840     0.11120
C3295       C  0.86962134  0.73226684  0.84457147    -0.15020
C3296       C  0.88136680  0.76730705  0.83485856     0.07130
C3297       C  0.87517938  0.79522946  0.85794973    -0.15020
C3298       C  0.86144389  0.78770544  0.89166036    -0.15020
C3299       C  0.85562452  0.75182564  0.90421568     0.07130
C3300       C  0.85743463  0.72439467  0.87948413    -0.15020
H3301       H  0.87324565  0.71044373  0.82647255     0.11120
H3302       H  0.88284012  0.82269884  0.85056924     0.11120
H3303       H  0.85616527  0.81044084  0.90780780     0.11120
H3304       H  0.85051873  0.69694511  0.88738501     0.11120
C3305       C  0.81734137  0.89582205  0.97239644    -0.15020
C3306       C  0.82730518  0.86223338  0.95829126     0.07130
C3307       C  0.86023286  0.84741819  0.97072246    -0.15020
C3308       C  0.87312211  0.85622570  0.50384779    -0.15020
C3309       C  0.86681859  0.89131551  0.51525589     0.07130
C3310       C  0.83745841  0.91070614  0.99995115    -0.15020
H3311       H  0.79299987  0.90958389  0.96329918     0.11120
H3312       H  0.87362418  0.82533832  0.95844292     0.11120
H3313       H  0.89639874  0.84093464  0.51383797     0.11120
H3314       H  0.83161686  0.93805381  0.00770619     0.11110
C3315       C  0.93879307  0.65808567  0.50347682    -0.15020
C3316       C  0.92854448  0.62422286  0.51840863     0.07130
C3317       C  0.90354523  0.62340311  0.04651230    -0.15020
C3318       C  0.88708787  0.65524771  0.55763599    -0.15020
C3319       C  0.89354801  0.68872956  0.53967819     0.07130
C3320       C  0.92095855  0.69007729  0.51359223    -0.15020
H3321       H  0.95869880  0.65948844  0.48227679     0.11120
H3322       H  0.89610598  0.59791196  0.05948659     0.11120
H3323       H  0.86609346  0.65308710  0.07779072     0.11120
H3324       H  0.92603584  0.71506584  0.49859571     0.11120
C3325       C  0.59163613  0.89055276  0.52133768    -0.15020
C3326       C  0.58867846  0.91671608  0.54726078     0.07130
C3327       C  0.62136859  0.93319858  0.55683819    -0.15020
C3328       C  0.65526712  0.92577025  0.54034913    -0.15020
C3329       C  0.66180559  0.89726835  0.51444604     0.07130
C3330       C  0.62396883  0.88432776  0.00258356    -0.15020
H3331       H  0.56714510  0.87943261  0.01078453     0.11120
H3332       H  0.61985383  0.95633124  0.57365333     0.11120
H3333       H  0.67710912  0.94375046  0.54559294     0.11120
H3334       H  0.62240366  0.86645195  0.98057556     0.11120
C3335       C  0.62213566  0.58231825  0.51799244    -0.15020
C3336       C  0.60027152  0.58096157  0.98787889     0.07130
C3337       C  0.59475328  0.61225008  0.96637006    -0.15020
C3338       C  0.60754574  0.64513157  0.97667533    -0.15020
C3339       C  0.62882195  0.64701001  0.00704201     0.07130
C3340       C  0.63697154  0.61520461  0.52721159    -0.15020
H3341       H  0.62533381  0.55877649  0.53573908     0.11120
H3342       H  0.57685913  0.61208032  0.94374429     0.11120
H3343       H  0.60122740  0.66907775  0.96039169     0.11120
H3344       H  0.65410216  0.61599622  0.55037857     0.11120
C3345       C  0.84145410  0.48623188  0.94642841    -0.15020
C3346       C  0.87281766  0.96784529  0.93512017     0.07130
C3347       C  0.86980387  0.94221208  0.90883385    -0.15020
C3348       C  0.83687000  0.93794224  0.89164488    -0.15020
C3349       C  0.80657936  0.95946281  0.90028078     0.07130
C3350       C  0.80856866  0.48186237  0.92934579    -0.15020
H3351       H  0.84265217  0.50554579  0.96731214     0.11120
H3352       H  0.89322397  0.92693431  0.90027834     0.11120
H3353       H  0.83601186  0.92047432  0.86918481     0.11120
H3354       H  0.78592095  0.49910267  0.93625912     0.11120
C3355       C  0.57025507  0.56357109  0.83843520    -0.15020
C3356       C  0.57235836  0.55039900  0.87338403     0.07130
C3357       C  0.60409519  0.55582280  0.89273556    -0.15020
C3358       C  0.63410853  0.57185274  0.87660726    -0.15020
C3359       C  0.63396575  0.58010088  0.84003283     0.07130
C3360       C  0.60074366  0.57842168  0.82204048    -0.15020
H3361       H  0.54525469  0.56214785  0.82379004     0.11120
H3362       H  0.60565893  0.54743641  0.92049729     0.11120
H3363       H  0.65910636  0.57240841  0.89138878     0.11120
H3364       H  0.59876177  0.58418468  0.79410251     0.11120
C3365       C  0.56669913  0.57168712  0.65488068    -0.15020
C3366       C  0.56384433  0.53854705  0.63820584     0.07130
C3367       C  0.55897497  0.50704535  0.66015489    -0.15020
C3368       C  0.56070088  0.50818764  0.69740979    -0.15020
C3369       C  0.56956933  0.54037763  0.71361884     0.07130
C3370       C  0.56921837  0.57258512  0.69208339    -0.15020
H3371       H  0.56862404  0.59672277  0.63916709     0.11120
H3372       H  0.55444144  0.98114941  0.64851297     0.11120
H3373       H  0.55947138  0.98306811  0.71303028     0.11120
H3374       H  0.57544665  0.59810416  0.70370379     0.11120
C3375       C  0.89784009  0.47712911  0.63575484    -0.15020
C3376       C  0.89661483  0.47659955  0.59880259     0.07130
C3377       C  0.86235623  0.47738999  0.58202855    -0.15020
C3378       C  0.83023690  0.48115973  0.60145472    -0.15020
C3379       C  0.83151696  0.48334325  0.63829881     0.07130
C3380       C  0.86565193  0.48045194  0.65522937    -0.15020
H3381       H  0.92352783  0.47734093  0.64932769     0.11120
H3382       H  0.86049802  0.47692247  0.55334088     0.11120
H3383       H  0.80467170  0.48318624  0.58767837     0.11120
H3384       H  0.86775251  0.48298146  0.68364610     0.11120
C3385       C  0.90209053  0.62483291  0.91638141    -0.15020
C3386       C  0.90635287  0.59284447  0.89693104     0.07130
C3387       C  0.90157301  0.59590172  0.86043625    -0.15020
C3388       C  0.90753490  0.62944607  0.84371049    -0.15020
C3389       C  0.91825438  0.65934566  0.86338974     0.07130
C3390       C  0.91191355  0.65797685  0.90002459    -0.15020
H3391       H  0.90185554  0.62297529  0.94514137     0.11120
H3392       H  0.90197735  0.57206697  0.84452968     0.11120
H3393       H  0.91089465  0.62991654  0.81549177     0.11120
H3394       H  0.91831487  0.68066821  0.91613940     0.11120
C3395       C  0.50636775  0.87956040  0.89748850    -0.15020
C3396       C  0.53487372  0.90432529  0.90090374     0.07130
C3397       C  0.56435011  0.89873793  0.87677526    -0.15020
C3398       C  0.56394480  0.87088238  0.85023427    -0.15020
C3399       C  0.53399649  0.84726100  0.84635400     0.07130
C3400       C  0.50597653  0.85250682  0.87172490    -0.15020
H3401       H  0.48300941  0.88146326  0.91482915     0.11120
H3402       H  0.58720655  0.91662083  0.87741909     0.11120
H3403       H  0.58663066  0.86872903  0.83221513     0.11120
H3404       H  0.48224113  0.83572374  0.87136513     0.11120
C3405       C  0.51188014  0.89333211  0.62458941    -0.15020
C3406       C  0.48005404  0.88704247  0.59897373     0.07130
C3407       C  0.94575494  0.88668634  0.62373671    -0.15020
C3408       C  0.94518115  0.89639487  0.66021136    -0.15020
C3409       C  0.47662878  0.89989014  0.68138798     0.07130
C3410       C  0.50843238  0.90260440  0.66086698    -0.15020
H3411       H  0.53870757  0.89319047  0.61309416     0.11120
H3412       H  0.92003817  0.88153837  0.61151615     0.11120
H3413       H  0.91875246  0.89919078  0.67154820     0.11120
H3414       H  0.53217245  0.91021945  0.67468833     0.11120
C3415       C  0.49253119  0.62118464  0.60383250    -0.15020
C3416       C  0.97059466  0.59391773  0.61924768     0.07130
C3417       C  0.93776815  0.60373371  0.63492444    -0.15020
C3418       C  0.92877071  0.64033213  0.63749858    -0.15020
C3419       C  0.95233759  0.66725003  0.62376053     0.07130
C3420       C  0.48257424  0.65714103  0.60437498    -0.15020
H3421       H  0.51619976  0.61496791  0.58850055     0.11120
H3422       H  0.91888860  0.58327641  0.64419935     0.11120
H3423       H  0.90496972  0.64775862  0.65261010     0.11120
H3424       H  0.50095686  0.67713932  0.59315830     0.11120
loop_ 
_geom_bond_atom_site_label_1 
_geom_bond_atom_site_label_2 
_geom_bond_distance 
_geom_bond_site_symmetry_2 
_ccdc_geom_bond_type 
O1           C28   1.256       .  A
O1          Mn27   1.998       .  S
C2         O1747   1.230       .  A
C2         O1744   1.269       .  A
C2          C420   1.444       .  S
O3          Mn27   2.098   1_655  S
O3        Mn2150   2.093       .  S
O3        Mn2589   2.114   1_545  S
O3         Mn881   2.066   1_645  S
O4           C14   1.276       .  A
O4          Mn38   2.179       .  S
O5          C884   1.287       .  A
O5        Mn1733   2.151   1_455  S
O6           C33   1.273       .  A
O6          Mn25   2.292       .  S
O7          Mn27   1.977       .  S
O7         Mn466   1.960       .  S
O7           C23   1.213       .  S
C8           O11   1.229       .  A
C8          C330   1.499       .  S
C8           O34   1.265       .  S
O9          Mn29   1.945       .  S
O9         Mn866   2.005       .  S
O9         Mn471   1.986   1_554  S
O9        Mn2165   2.147   1_554  S
Mn10         O39   2.011       .  S
Mn10        O443   2.057   1_544  S
Mn10        O470   2.107       .  S
Mn10       O2143   2.093   1_554  S
Mn10        O865   2.005   1_545  S
Mn10       O1728   2.134       .  S
O11        Mn453   1.937   1_554  S
O12          C14   1.251       .  A
O12         Mn19   2.032   1_545  S
C13          O39   1.251   1_565  A
C13         C380   1.485       .  S
C13         O882   1.251       .  S
C14         C370   1.500       .  S
O15         C896   1.258       .  A
O15        Mn438   2.057   1_565  S
O16         Mn19   2.185   1_545  S
O16         Mn38   2.044       .  S
O16       Mn1722   2.134   1_455  S
O16       Mn1309   2.170   1_544  S
O17         Mn21   1.974       .  S
O17         Mn43   2.061       .  S
O17          C40   1.240       .  S
C18          O44   1.152       .  A
C18         O448   1.377       .  A
C18        C2122   1.842       .  S
Mn19         O32   2.171   1_465  S
Mn19        O890   2.023       .  S
Mn19       O2594   1.988   1_455  S
O20         C446   1.377       .  A
O20         Mn43   2.443       .  S
Mn21       O1717   2.151       .  S
Mn21        O893   2.153       .  S
Mn21       O2571   2.114       .  S
Mn21         O31   2.024       .  S
O22          C24   1.263       .  A
O22       Mn1739   2.010       .  S
C23          O41   1.261       .  A
C23         C340   1.443       .  S
C24          O37   1.287       .  A
C24         C390   1.476       .  S
Mn25        O439   1.937       .  S
Mn25        O897   2.115       .  S
Mn25        O859   2.066   1_455  S
Mn25       O2149   2.147   1_455  S
Mn25       O1300   2.170       .  S
O26         Mn29   1.977       .  S
O26       Mn2587   1.988       .  S
O26         C869   1.251       .  S
Mn27       O1734   2.010   1_455  S
Mn27         O45   1.912   1_455  S
C28         O861   1.287       .  A
C28         C360   1.452       .  S
Mn29         O36   2.163       .  S
Mn29         O44   1.814       .  S
Mn29       O1746   2.031       .  S
C30          O36   1.262       .  A
C30         O474   1.231   1_554  A
C30         C313   1.451       .  S
O31         Mn43   2.006       .  S
O31        C1745   1.206       .  S
O32        C1714   1.269       .  A
C33         C400   1.579       .  S
C33        O1743   1.206   1_455  S
O34        Mn875   2.023       .  S
O34       Mn1741   2.031   1_455  S
O35        C1714   1.230       .  A
O35         Mn38   2.032   1_655  S
O37        Mn877   2.153   1_545  S
Mn38        O435   1.960   1_554  S
Mn38        O473   1.939   1_455  S
C40         O871   1.258       .  A
C40         C350   1.479       .  S
O41        Mn881   2.115   1_545  S
O42          C47   1.246       .  A
O42        Mn438   2.107       .  S
Mn43         O46   1.935       .  S
Mn43        O437   1.986       .  S
O45        Mn466   1.939   1_655  S
O45        C1759   1.213       .  S
O46         C458   1.231       .  A
C47         C748   1.487       .  S
C47        O1757   1.213       .  S
O48          C75   1.270       .  A
O48         Mn74   2.062   1_455  S
C49        O1794   1.240       .  A
C49        O1791   1.273       .  A
C49         C423   1.447       .  S
O50         Mn57   2.120       .  S
O50         Mn68   2.112       .  S
O50       Mn1784   2.079       .  S
O50       Mn1786   2.155       .  S
O51          C61   1.280       .  A
O51         Mn85   2.190   1_455  S
O52          C75   1.287       .  A
O52       Mn1780   2.126   1_455  S
O53          C80   1.293       .  A
O53         Mn72   2.313       .  S
O54         Mn85   1.973   1_455  S
O54         Mn74   2.016   1_455  S
O54          C70   1.241       .  S
C55          O58   1.240       .  A
C55         C260   1.514       .  S
C55          O81   1.258       .  S
O56         Mn76   2.091       .  S
O56         Mn57   2.044       .  S
O56         Mn90   2.107       .  S
O56       Mn1784   2.166       .  S
Mn57         O86   2.013       .  S
Mn57         O62   2.100       .  S
Mn57         O89   1.986       .  S
Mn57       O1775   2.106       .  S
O58         Mn72   2.023       .  S
O59          C61   1.249       .  A
O59         Mn66   2.014   1_455  S
C60          O86   1.250       .  A
C60         C270   1.487       .  S
C60          O73   1.247       .  S
C61         C280   1.475       .  S
O62          C87   1.250       .  A
O63         Mn66   2.145       .  S
O63         Mn85   2.099       .  S
O63         Mn72   2.155   1_655  S
O63       Mn1769   2.106       .  S
O64         Mn68   1.933       .  S
O64         Mn90   2.023       .  S
O64          C87   1.220       .  S
C65        O1803   1.213   1_655  A
C65        O1779   1.290       .  A
C65         C413   1.590       .  S
Mn66         O79   2.139       .  S
Mn66         O81   2.023   1_655  S
Mn66       O1785   1.977       .  S
O67        C1777   1.290       .  A
O67         Mn90   2.330       .  S
Mn68         O84   2.160       .  S
Mn68       O1764   2.126       .  S
Mn68         O78   2.027       .  S
O69          C71   1.255       .  A
O69       Mn1786   2.003       .  S
C70          O88   1.276       .  A
C70         C250   1.504       .  S
C71          O84   1.281       .  A
C71         C393   1.483       .  S
Mn72         O88   2.131       .  S
Mn72       O1762   2.079   1_455  S
Mn72       O1768   2.166   1_455  S
O73         Mn76   1.978       .  S
O73       Mn1778   1.977       .  S
Mn74       O1781   2.003       .  S
Mn74       O1762   2.155       .  S
Mn74       O1804   1.987       .  S
C75         C290   1.458       .  S
Mn76         O83   2.128       .  S
Mn76         O91   2.023       .  S
Mn76       O1793   1.946       .  S
C77          O83   1.263       .  A
C77          O93   1.247       .  A
C77         C240   1.427       .  S
O78         Mn90   2.020       .  S
O78        C1792   1.208       .  S
O79        C1761   1.273       .  A
C80         C403   1.583       .  S
C80        O1790   1.208   1_455  S
O81       Mn1788   1.946   1_455  S
O82        C1761   1.240       .  A
O82         Mn85   2.045       .  S
Mn85       O1804   2.027       .  S
C87         C300   1.465       .  S
O89          C94   1.230       .  A
Mn90         O93   2.012       .  S
O91        C1777   1.213       .  A
O92       Mn1786   1.987       .  S
O92       Mn1797   2.027       .  S
O92          C94   1.251       .  S
C94         C230   1.519       .  S
O95         C122   1.280       .  A
O95        Mn121   2.121       .  S
C96         O129   1.245       .  A
C96         O126   1.285   1_565  A
C96         C383   1.488       .  S
O97        Mn104   2.108   1_545  S
O97        Mn115   2.110       .  S
O97        Mn119   2.086       .  S
O97        Mn121   2.101       .  S
O98         C108   1.284       .  A
O98        Mn132   2.188       .  S
O99         C122   1.275       .  A
O99        Mn115   2.067       .  S
O100        C127   1.274       .  A
O100       Mn119   2.153       .  S
O101       Mn132   1.937       .  S
O101       Mn121   1.974       .  S
O101        C117   1.208       .  S
C102        O105   1.240       .  A
C102        C253   1.526       .  S
C102        O128   1.256       .  S
O103       Mn123   2.109       .  S
O103       Mn104   2.047   1_545  S
O103       Mn119   2.227       .  S
O103       Mn993   2.144   1_545  S
Mn104       O989   2.022       .  S
Mn104       O965   2.181       .  S
Mn104       O992   1.981       .  S
Mn104       O110   2.184   1_565  S
O105       Mn119   2.044       .  S
O106        C108   1.254       .  A
O106       Mn113   2.032       .  S
C107        O133   1.255       .  A
C107        C200   1.446       .  S
C107        O976   1.240       .  S
C108        C190   1.476       .  S
O109        C134   1.265       .  A
O109       Mn960   2.181       .  S
O110       Mn113   2.131       .  S
O110       Mn132   2.100       .  S
O110       Mn119   2.124       .  S
O111       Mn137   2.037       .  S
O111       Mn971   1.972       .  S
O111        C134   1.216       .  S
C112        O138   1.224       .  A
C112        O114   1.271       .  A
C112        C373   1.488       .  S
Mn113       O126   2.198       .  S
Mn113       O128   2.045       .  S
Mn113       O120   1.979   1_545  S
O114       Mn993   2.210   1_545  S
Mn115       O987   2.130   1_545  S
Mn115       O125   1.973       .  S
Mn115       O967   1.972   1_545  S
O116        C118   1.255       .  A
O116       Mn121   2.052   1_565  S
C117        O135   1.278       .  A
C117        C233   1.517       .  S
C118        O987   1.275       .  A
C118       C1209   1.470       .  S
Mn119       O135   2.207       .  S
O120       Mn123   1.972   1_565  S
O120        C963   1.240       .  S
Mn121       O139   1.947   1_545  S
C122        C220   1.468       .  S
Mn123       O138   2.002       .  S
Mn123       O986   2.129   1_545  S
Mn123       O128   1.954       .  S
C124        O130   1.276       .  A
C124        O140   1.283       .  A
C124        C263   1.497       .  S
O125       Mn993   1.969   1_545  S
O125        C127   1.208       .  S
C127        C363   1.458       .  S
O129       Mn132   2.027   1_565  S
O130       Mn979   2.129       .  S
O131        C974   1.275       .  A
O131       Mn971   2.130       .  S
Mn132       O139   1.957   1_545  S
O133       Mn960   2.022       .  S
C134        C213   1.534       .  S
O136        C997   1.229       .  A
O136       Mn960   1.981       .  S
Mn137       O140   2.100       .  S
Mn137       O970   2.210       .  S
Mn137       O959   2.144       .  S
Mn137       O981   1.969       .  S
O139        C141   1.222       .  S
C141        O992   1.229       .  A
C141       C1099   1.437       .  S
O142        C169   1.273       .  A
O142       Mn168   2.129       .  S
C143        O176   1.253       .  A
C143        O173   1.276       .  A
C143        C343   1.457       .  S
O144       Mn166   2.139       .  S
O144       Mn168   2.092       .  S
O144       Mn579   2.150       .  S
O144       Mn590   2.053       .  S
O145        C155   1.285       .  A
O145       Mn179   2.179       .  S
O146        C169   1.257       .  A
O146       Mn590   2.050       .  S
O147        C174   1.253       .  A
O147       Mn166   2.218       .  S
O148       Mn179   1.892       .  S
O148       Mn168   1.893       .  S
O148        C164   1.199       .  S
C149        O152   1.251       .  A
C149        C210   1.548       .  S
C149        O175   1.271       .  S
O150       Mn170   2.127       .  S
O150       Mn151   2.076       .  S
O150       Mn184   2.038       .  S
O150       Mn594   2.231   1_554  S
Mn151       O180   2.081       .  S
Mn151       O156   2.137       .  S
Mn151       O183   2.038       .  S
Mn151       O572   2.150       .  S
Mn151       O585   2.135   1_554  S
O152       Mn166   2.018       .  S
O153        C155   1.261       .  A
O153       Mn160   2.019       .  S
C154        O180   1.260       .  A
C154        C283   1.476       .  S
C154        O167   1.227       .  S
C155        C293   1.469       .  S
O156        C181   1.264       .  A
O157       Mn160   2.114       .  S
O157       Mn179   2.081       .  S
O157       Mn166   2.120       .  S
O157       Mn579   2.135       .  S
O158       Mn162   1.983       .  S
O158       Mn184   2.041       .  S
O158        C181   1.213       .  S
C159        O161   1.296       .  A
C159        O613   1.176       .  A
C159        C761   1.744       .  S
Mn160       O173   2.121       .  S
Mn160       O175   2.073       .  S
Mn160       O595   1.911       .  S
O161       Mn612   2.191       .  S
Mn162       O178   2.174       .  S
Mn162       O574   2.050   1_554  S
Mn162       O572   2.053       .  S
Mn162       O600   1.928   1_554  S
O163        C593   1.250       .  A
O163       Mn168   2.033       .  S
C164        O182   1.270       .  A
C164        C223   1.489       .  S
C165        O178   1.283       .  A
C165        O591   1.250       .  A
C165        C323   1.485       .  S
Mn166       O182   2.215       .  S
Mn166       O578   2.231       .  S
O167       Mn170   1.947       .  S
O167       Mn588   1.911   1_554  S
Mn168       O186   1.966       .  S
C169        C303   1.489       .  S
Mn170       O177   2.117       .  S
Mn170       O185   1.989       .  S
Mn170       O603   2.039   1_554  S
C171        O177   1.282       .  A
C171        O187   1.266       .  A
C171        C203   1.448       .  S
O172       Mn590   1.928       .  S
O172       Mn612   1.865       .  S
O172        C174   1.180       .  S
C174        C310   1.466       .  S
O175       Mn598   2.039       .  S
O176       Mn179   2.035       .  S
Mn179       O186   2.033       .  S
C181        C273   1.485       .  S
O183        C188   1.239       .  A
Mn184       O187   2.019       .  S
Mn184       O589   2.191   1_554  S
Mn184       O600   1.865   1_554  S
O185        C587   1.176   1_554  A
O186        C616   1.230       .  S
C188        C193   1.497       .  S
C188        O614   1.230       .  S
C189        C190   1.414       .  A
C189        C194   1.411       .  A
C189        H195   1.083       .  S
C190        C191   1.399       .  A
C191        C192   1.399       .  A
C191        H196   1.084       .  S
C192        C193   1.413       .  A
C192        H197   1.083       .  S
C193        C194   1.404       .  A
C194        H198   1.083       .  S
C199        C200   1.386       .  A
C199        C204   1.375       .  A
C199        H205   1.083       .  S
C200        C201   1.412       .  A
C201        C202   1.395       .  A
C201        H206   1.082       .  S
C202        C203   1.392       .  A
C202        H207   1.083       .  S
C203        C204   1.408       .  A
C204        H208   1.084       .  S
C209        C210   1.428       .  A
C209        C214   1.416       .  A
C209        H215   1.083       .  S
C210        C211   1.413       .  A
C211        C212   1.428       .  A
C211        H216   1.071       .  S
C212        C213   1.421       .  A
C212        H217   1.083       .  S
C213        C214   1.404       .  A
C214        H218   1.083       .  S
C219        C220   1.385       .  A
C219        C224   1.372       .  A
C219        H225   1.085       .  S
C220        C221   1.415       .  A
C221        C222   1.418       .  A
C221        H226   1.080       .  S
C222        C223   1.405       .  A
C222        H227   1.081       .  S
C223        C224   1.416       .  A
C224        H228   1.081       .  S
C229        C230   1.401       .  A
C229        C234   1.418       .  A
C229        H235   1.083       .  S
C230        C231   1.428       .  A
C231        C232   1.408       .  A
C231        H236   1.082       .  S
C232        C233   1.395       .  A
C232        H237   1.083       .  S
C233        C234   1.429       .  A
C234        H238   1.083       .  S
C239        C240   1.392       .  A
C239        C244   1.383       .  A
C239        H245   1.084       .  S
C240        C241   1.405       .  A
C241        C242   1.373       .  A
C241        H246   1.079       .  S
C242        C243   1.388       .  A
C242        H247   1.084       .  S
C243        C997   1.437       .  S
C243        C244   1.409       .  A
C244        H248   1.084       .  S
C249        C250   1.417       .  A
C249        C254   1.434       .  A
C249        H255   1.073       .  S
C250        C251   1.383       .  A
C251        C252   1.396       .  A
C251        H256   1.083       .  S
C252        C253   1.404       .  A
C252        H257   1.048       .  S
C253        C254   1.407       .  A
C254        H258   1.081       .  S
C259        C260   1.406       .  A
C259        C264   1.426       .  A
C259        H265   1.080       .  S
C260        C261   1.410       .  A
C261        C262   1.381       .  A
C261        H266   1.063       .  S
C262        C263   1.388       .  A
C262        H267   1.081       .  S
C263        C264   1.423       .  A
C264        H268   1.083       .  S
C269        C270   1.395       .  A
C269        C274   1.400       .  A
C269        H275   1.081       .  S
C270        C271   1.419       .  A
C271        C272   1.398       .  A
C271        H276   1.083       .  S
C272        C273   1.396       .  A
C272        H277   1.083       .  S
C273        C274   1.416       .  A
C274        H278   1.079       .  S
C279        C280   1.409       .  A
C279        C284   1.394       .  A
C279        H285   1.084       .  S
C280        C281   1.397       .  A
C281        C282   1.403       .  A
C281        H286   1.076       .  S
C282        C283   1.408       .  A
C282        H287   1.083       .  S
C283        C284   1.400       .  A
C284        H288   1.083       .  S
C289        C290   1.407       .  A
C289        C294   1.400       .  A
C289        H295   1.084       .  S
C290        C291   1.395       .  A
C291        C292   1.388       .  A
C291        H296   1.084       .  S
C292        C293   1.409       .  A
C292        H297   1.084       .  S
C293        C294   1.401       .  A
C294        H298   1.082       .  S
C299        C300   1.407       .  A
C299        C304   1.408       .  A
C299        H305   1.082       .  S
C300        C301   1.390       .  A
C301        C302   1.384       .  A
C301        H306   1.084       .  S
C302        C303   1.411       .  A
C302        H307   1.071       .  S
C303        C304   1.403       .  A
C304        H308   1.081       .  S
C309        C310   1.413       .  A
C309        C314   1.413       .  A
C309        H315   1.081       .  S
C310        C311   1.407       .  A
C311        C740   1.389       .  A
C311        H316   1.068       .  S
C312        C313   1.398       .  A
C312        C739   1.389   1_554  A
C312        H317   1.087       .  S
C313        C742   1.410   1_554  A
C314        C741   1.410       .  A
C314        H318   1.082       .  S
C319        C320   1.409       .  A
C319        C324   1.411       .  A
C319        H325   1.083   1_554  S
C320        C475   1.487       .  S
C320        C749   1.401       .  A
C321        C748   1.401       .  A
C321        C750   1.396       .  A
C321        H326   1.084       .  S
C322        C323   1.411       .  A
C322        C749   1.396       .  A
C322        H755   1.084       .  S
C323        C324   1.408       .  A
C324        H328   1.083   1_554  S
H327        C750   1.084       .  S
C329        C330   1.402       .  A
C329        C762   1.407       .  A
C329        H763   1.084       .  S
C330        C331   1.417       .  A
C331        C332   1.425       .  A
C331        H336   1.084       .  S
C332        C333   1.479       .  A
C332        H337   1.078       .  S
C333        C587   1.744   1_554  S
C333        C762   1.560       .  A
C334        C757   1.407       .  A
C334        C761   1.560       .  A
C334        H338   1.081       .  S
H335        C757   1.084       .  S
C339        C344   1.397       .  A
C339        C768   1.400   1_554  A
C339        H345   1.084       .  S
C340        C341   1.401       .  A
C340        C767   1.400       .  A
C341        C342   1.381       .  A
C341        H346   1.083       .  S
C342        C343   1.397       .  A
C342        H347   1.082       .  S
C343        C772   1.407       .  A
C344        C771   1.407       .  A
C344        H348   1.083       .  S
C349        C354   1.395       .  A
C349       C1206   1.410       .  A
C349        H355   1.083   1_565  S
C350        C351   1.401       .  A
C350       C1205   1.410       .  A
C351        C352   1.398       .  A
C351        H356   1.083       .  S
C352        C353   1.411       .  A
C352        H357   1.084       .  S
C353        C974   1.470       .  S
C353       C1210   1.399       .  A
C354       C1209   1.399       .  A
C354        H358   1.083       .  S
C359        C360   1.388       .  A
C359        C364   1.392       .  A
C359        H365   1.084       .  S
C360        C361   1.407       .  A
C361        C362   1.392       .  A
C361        H366   1.081       .  S
C362        C363   1.399       .  A
C362        H367   1.084       .  S
C363        C364   1.412       .  A
C364        H368   1.068       .  S
C369        C370   1.403       .  A
C369        C374   1.405       .  A
C369        H375   1.083       .  S
C370        C371   1.416       .  A
C371        C372   1.406       .  A
C371       H1232   1.083   1_545  S
C372        C373   1.401       .  A
C372       H1233   1.082   1_545  S
C373        C374   1.416       .  A
C374        H378   1.083       .  S
H376       C1227   1.083       .  S
H377       C1228   1.082       .  S
C379        C380   1.393       .  A
C379        C384   1.402       .  A
C379        H385   1.083       .  S
C380        C381   1.421       .  A
C381        C382   1.400       .  A
C381        H386   1.083       .  S
C382        C383   1.393       .  A
C382        H387   1.083       .  S
C383        C384   1.421       .  A
C384        H388   1.080       .  S
C389        C390   1.421       .  A
C389        C394   1.402       .  A
C389        H395   1.082       .  S
C390        C391   1.386       .  A
C391        C392   1.390       .  A
C391        H396   1.084       .  S
C392        C393   1.416       .  A
C392        H397   1.068       .  S
C393        C394   1.396       .  A
C394        H398   1.083       .  S
C399        C400   1.416       .  A
C399        C404   1.419       .  A
C399        H405   1.083   1_455  S
C400        C401   1.433       .  A
C401        C402   1.462       .  A
C401        H406   1.082       .  S
C402        C403   1.432       .  A
C402        H407   1.080       .  S
C403        C404   1.422       .  A
C404        H408   1.083   1_455  S
C409        C410   1.553   1_455  A
C409        C414   1.424       .  A
C409        H415   1.081       .  S
C410       C1730   1.843       .  S
C410       C2123   1.570       .  A
C411        C412   1.432       .  A
C411       C2122   1.570       .  A
C411        H416   1.083       .  S
C412       C2125   1.426       .  A
C412        H417   1.071       .  S
C413        C414   1.407   1_655  A
C413       C2124   1.426       .  A
C414        H418   1.071       .  S
C419        C424   1.377       .  A
C419       C2132   1.409       .  A
C419        H425   1.073   1_655  S
C420        C421   1.398       .  A
C420       C2131   1.409       .  A
C421        C422   1.397       .  A
C421        H426   1.083       .  S
C422        C423   1.414       .  A
C422        H427   1.084       .  S
C423       C2136   1.387       .  A
C424       C2135   1.387       .  A
C424        H428   1.084   1_655  S
O429        C456   1.256       .  A
O429       Mn455   1.998       .  S
C430       O2175   1.230       .  A
C430       O2172   1.269       .  A
C430        C848   1.444       .  S
O431      Mn1722   2.093   1_556  S
O431      Mn3017   2.114   1_545  S
O431      Mn1309   2.066   1_645  S
O431       Mn455   2.098   1_655  S
O432        C442   1.276       .  A
O432       Mn466   2.179       .  S
O433       C1312   1.287       .  A
O433      Mn2161   2.151   1_455  S
O434        C461   1.273       .  A
O434       Mn453   2.292       .  S
O435       Mn455   1.977       .  S
O435        C451   1.213       .  S
C436        O439   1.229       .  A
C436        C758   1.499       .  S
C436        O462   1.265       .  S
O437       Mn457   1.945       .  S
O437      Mn1294   2.005       .  S
O437      Mn1737   2.147       .  S
Mn438       O467   2.011       .  S
Mn438      O1715   2.093       .  S
Mn438      O1293   2.005   1_545  S
Mn438      O2156   2.134       .  S
O440        C442   1.251       .  A
O440       Mn447   2.032   1_545  S
C441        O467   1.251   1_565  A
C441        C808   1.485       .  S
C441       O1310   1.251       .  S
C442        C798   1.500       .  S
O443       C1324   1.258       .  A
O444      Mn2150   2.134   1_455  S
O444       Mn447   2.185   1_545  S
O444       Mn466   2.044       .  S
O444       Mn881   2.170   1_545  S
O445       Mn449   1.974       .  S
O445       Mn471   2.061       .  S
O445        C468   1.240       .  S
C446        O472   1.152       .  A
C446       C2550   1.842       .  S
Mn447       O460   2.171   1_465  S
Mn447      O1318   2.023       .  S
Mn447      O3022   1.988   1_455  S
O448       Mn471   2.443   1_554  S
Mn449      O2145   2.151       .  S
Mn449      O1321   2.153       .  S
Mn449      O2999   2.114       .  S
Mn449       O459   2.024       .  S
O450        C452   1.263       .  A
O450      Mn2167   2.010       .  S
C451        O469   1.261       .  A
C451        C768   1.443       .  S
C452        O465   1.287       .  A
C452        C818   1.476       .  S
Mn453      O1325   2.115       .  S
Mn453      O1287   2.066   1_455  S
Mn453      O1721   2.147   1_456  S
Mn453       O872   2.170   1_556  S
O454      Mn3015   1.988       .  S
O454       Mn457   1.977       .  S
O454       C1297   1.251       .  S
Mn455      O2162   2.010   1_455  S
Mn455       O473   1.912   1_456  S
C456       O1289   1.287       .  A
C456        C788   1.452       .  S
Mn457       O464   2.164       .  S
Mn457       O472   1.814       .  S
Mn457      O2174   2.031       .  S
C458        O464   1.262       .  A
C458        C741   1.451       .  S
O459       Mn471   2.006       .  S
O459       C2173   1.206       .  S
O460       C2142   1.269       .  A
C461        C828   1.579       .  S
C461       O2171   1.206   1_455  S
O462      Mn1303   2.023       .  S
O462      Mn2169   2.031   1_455  S
O463       C2142   1.230       .  A
O463       Mn466   2.032   1_655  S
O465      Mn1305   2.153   1_545  S
C468       O1299   1.258       .  A
C468        C778   1.479       .  S
O469      Mn1309   2.115   1_545  S
O470        C475   1.246       .  A
Mn471       O474   1.935       .  S
O473       C2187   1.213       .  S
C475       O2185   1.213       .  S
O476        C503   1.270       .  A
O476       Mn502   2.062   1_455  S
C477       O2222   1.240       .  A
C477       O2219   1.273       .  A
C477        C851   1.447       .  S
O478       Mn485   2.120       .  S
O478       Mn496   2.112       .  S
O478      Mn2212   2.078       .  S
O478      Mn2214   2.155       .  S
O479        C489   1.280       .  A
O479       Mn513   2.190   1_455  S
O480        C503   1.287       .  A
O480      Mn2208   2.126   1_455  S
O481        C508   1.293       .  A
O481       Mn500   2.313       .  S
O482       Mn513   1.973   1_455  S
O482       Mn502   2.016   1_455  S
O482        C498   1.241       .  S
C483        O486   1.240       .  A
C483        C688   1.514       .  S
C483        O509   1.258       .  S
O484       Mn504   2.091       .  S
O484       Mn485   2.044       .  S
O484       Mn518   2.107       .  S
O484      Mn2212   2.166       .  S
Mn485       O514   2.013       .  S
Mn485       O490   2.100       .  S
Mn485       O517   1.986       .  S
Mn485      O2203   2.106       .  S
O486       Mn500   2.023       .  S
O487        C489   1.249       .  A
O487       Mn494   2.014   1_455  S
C488        O514   1.250       .  A
C488        C698   1.487       .  S
C488        O501   1.247       .  S
C489        C708   1.475       .  S
O490        C515   1.250       .  A
O491      Mn2197   2.106       .  S
O491       Mn494   2.145       .  S
O491       Mn513   2.099       .  S
O491       Mn500   2.155   1_655  S
O492       Mn496   1.933       .  S
O492       Mn518   2.023       .  S
O492        C515   1.220       .  S
C493       O2231   1.213   1_655  A
C493       O2207   1.290       .  A
C493        C841   1.590       .  S
Mn494       O507   2.139       .  S
Mn494       O509   2.023   1_655  S
Mn494      O2213   1.977       .  S
O495       C2205   1.290       .  A
O495       Mn518   2.330       .  S
Mn496      O2192   2.126       .  S
Mn496       O512   2.160       .  S
Mn496       O506   2.026       .  S
O497        C499   1.255       .  A
O497      Mn2214   2.003       .  S
C498        O516   1.276       .  A
C498        C678   1.504       .  S
C499        O512   1.281       .  A
C499        C821   1.483       .  S
Mn500       O516   2.131       .  S
Mn500      O2190   2.079   1_455  S
Mn500      O2196   2.166   1_455  S
O501      Mn2206   1.977       .  S
O501       Mn504   1.978       .  S
Mn502      O2209   2.003       .  S
Mn502      O2190   2.155       .  S
Mn502      O2232   1.987       .  S
C503        C718   1.458       .  S
Mn504       O511   2.128       .  S
Mn504       O519   2.023       .  S
Mn504      O2221   1.946       .  S
C505        O511   1.263       .  A
C505        O521   1.247       .  A
C505        C668   1.427       .  S
O506       Mn518   2.020       .  S
O506       C2220   1.208       .  S
O507       C2189   1.273       .  A
C508        C831   1.583       .  S
C508       O2218   1.208   1_455  S
O509      Mn2216   1.946   1_455  S
O510       C2189   1.240       .  A
O510       Mn513   2.045       .  S
Mn513      O2232   2.027       .  S
C515        C728   1.465       .  S
O517        C522   1.230       .  A
Mn518       O521   2.012       .  S
O519       C2205   1.213       .  A
O520      Mn2214   1.987       .  S
O520      Mn2225   2.027       .  S
O520        C522   1.251       .  S
C522        C658   1.519       .  S
O523        C550   1.280       .  A
O523       Mn549   2.121       .  S
C524        O557   1.245       .  A
C524        O554   1.285   1_565  A
C524        C811   1.488       .  S
O525       Mn532   2.108   1_545  S
O525       Mn543   2.110       .  S
O525       Mn547   2.086       .  S
O525       Mn549   2.101       .  S
O526        C536   1.284       .  A
O526       Mn560   2.188       .  S
O527        C550   1.275       .  A
O527       Mn543   2.067       .  S
O528        C555   1.274       .  A
O528       Mn547   2.153       .  S
O529       Mn560   1.937       .  S
O529       Mn549   1.974       .  S
O529        C545   1.208       .  S
C530        O533   1.240       .  A
C530        C681   1.526       .  S
C530        O556   1.256       .  S
O531       Mn551   2.109       .  S
O531       Mn532   2.047   1_545  S
O531      Mn1421   2.144   1_545  S
O531       Mn547   2.227       .  S
Mn532      O1417   2.022       .  S
Mn532      O1393   2.181       .  S
Mn532      O1420   1.981       .  S
Mn532       O538   2.184   1_565  S
O533       Mn547   2.044       .  S
O534        C536   1.254       .  A
O534       Mn541   2.032       .  S
C535        O561   1.255       .  A
C535        C628   1.446       .  S
C535       O1404   1.240       .  S
C536        C618   1.476       .  S
O537        C562   1.265       .  A
O537      Mn1388   2.181       .  S
O538       Mn541   2.131       .  S
O538       Mn560   2.100       .  S
O538       Mn547   2.124       .  S
O539      Mn1399   1.972       .  S
O539       Mn565   2.037       .  S
O539        C562   1.216       .  S
C540        O566   1.224       .  A
C540        O542   1.271       .  A
C540        C801   1.488       .  S
Mn541       O554   2.198       .  S
Mn541       O556   2.045       .  S
Mn541       O548   1.979   1_545  S
O542      Mn1421   2.210   1_545  S
Mn543      O1415   2.130   1_545  S
Mn543      O1395   1.972   1_545  S
Mn543       O553   1.973       .  S
O544        C546   1.255       .  A
O544       Mn549   2.052   1_565  S
C545        O563   1.278       .  A
C545        C661   1.517       .  S
C546       O1415   1.275       .  A
C546       C1637   1.470       .  S
Mn547       O563   2.207       .  S
O548       Mn551   1.972   1_565  S
O548       C1391   1.240       .  S
Mn549       O567   1.947   1_545  S
C550        C648   1.468       .  S
Mn551      O1414   2.129   1_545  S
Mn551       O566   2.002       .  S
Mn551       O556   1.954       .  S
C552        O558   1.276       .  A
C552        O568   1.283       .  A
C552        C691   1.497       .  S
O553      Mn1421   1.969   1_545  S
O553        C555   1.208       .  S
C555        C791   1.458       .  S
O557       Mn560   2.027   1_565  S
O558      Mn1407   2.129       .  S
O559       C1402   1.275       .  A
O559      Mn1399   2.130       .  S
Mn560       O567   1.957   1_545  S
O561      Mn1388   2.022       .  S
C562        C641   1.534       .  S
O564       C1425   1.229       .  A
O564      Mn1388   1.981       .  S
Mn565      O1398   2.210       .  S
Mn565       O568   2.100       .  S
Mn565      O1387   2.144       .  S
Mn565      O1409   1.969       .  S
O567        C569   1.222       .  S
C569       O1420   1.229       .  A
C569       C1527   1.437       .  S
O570        C597   1.273       .  A
O570       Mn596   2.129       .  S
C571        O604   1.253       .  A
C571        O601   1.276   1_554  A
C571        C771   1.457       .  S
O572       Mn594   2.139   1_554  S
O572       Mn596   2.092   1_554  S
O573        C583   1.285       .  A
O573       Mn607   2.179       .  S
O574        C597   1.257       .  A
O575        C602   1.253       .  A
O575       Mn594   2.218       .  S
O576       Mn607   1.892       .  S
O576       Mn596   1.893       .  S
O576        C592   1.199       .  S
C577        O580   1.251       .  A
C577        C638   1.548       .  S
C577        O603   1.271       .  S
O578       Mn598   2.127       .  S
O578       Mn579   2.076       .  S
O578       Mn612   2.038       .  S
Mn579       O608   2.081       .  S
Mn579       O584   2.137       .  S
Mn579       O611   2.038       .  S
O580       Mn594   2.018       .  S
O581        C583   1.261       .  A
O581       Mn588   2.019       .  S
C582        O608   1.260       .  A
C582        C711   1.476       .  S
C582        O595   1.227       .  S
C583        C721   1.469       .  S
O584        C609   1.264       .  A
O585       Mn588   2.114       .  S
O585       Mn607   2.081       .  S
O585       Mn594   2.120       .  S
O586       Mn590   1.983       .  S
O586       Mn612   2.041       .  S
O586        C609   1.213       .  S
C587        O589   1.296       .  A
Mn588       O601   2.121       .  S
Mn588       O603   2.073       .  S
Mn590       O606   2.174       .  S
O591       Mn596   2.033   1_554  S
C592        O610   1.270       .  A
C592        C651   1.489       .  S
C593        O606   1.283       .  A
C593        C751   1.485       .  S
Mn594       O610   2.215       .  S
O595       Mn598   1.947       .  S
Mn596       O614   1.966   1_556  S
C597        C731   1.489       .  S
Mn598       O605   2.117       .  S
Mn598       O613   1.989       .  S
C599        O605   1.282       .  A
C599        O615   1.266       .  A
C599        C631   1.448       .  S
O600        C602   1.180       .  S
C602        C738   1.466       .  S
O604       Mn607   2.035   1_554  S
Mn607       O614   2.033   1_556  S
C609        C701   1.485       .  S
O611        C616   1.239       .  A
Mn612       O615   2.019       .  S
C616        C621   1.497       .  S
C617        C618   1.414       .  A
C617        C622   1.411       .  A
C617        H623   1.083       .  S
C618        C619   1.399       .  A
C619        C620   1.399       .  A
C619        H624   1.084       .  S
C620        C621   1.413       .  A
C620        H625   1.083       .  S
C621        C622   1.404       .  A
C622        H626   1.083       .  S
C627        C628   1.386       .  A
C627        C632   1.375       .  A
C627        H633   1.083       .  S
C628        C629   1.412       .  A
C629        C630   1.395       .  A
C629        H634   1.082       .  S
C630        C631   1.392       .  A
C630        H635   1.083       .  S
C631        C632   1.408       .  A
C632        H636   1.084       .  S
C637        C638   1.428       .  A
C637        C642   1.416       .  A
C637        H643   1.083       .  S
C638        C639   1.413       .  A
C639        C640   1.428       .  A
C639        H644   1.071       .  S
C640        C641   1.421       .  A
C640        H645   1.083       .  S
C641        C642   1.404       .  A
C642        H646   1.083       .  S
C647        C648   1.385       .  A
C647        C652   1.372       .  A
C647        H653   1.085       .  S
C648        C649   1.415       .  A
C649        C650   1.418       .  A
C649        H654   1.080       .  S
C650        C651   1.405       .  A
C650        H655   1.081       .  S
C651        C652   1.416       .  A
C652        H656   1.081       .  S
C657        C658   1.401       .  A
C657        C662   1.418       .  A
C657        H663   1.083       .  S
C658        C659   1.428       .  A
C659        C660   1.408       .  A
C659        H664   1.082       .  S
C660        C661   1.395       .  A
C660        H665   1.083       .  S
C661        C662   1.429       .  A
C662        H666   1.083       .  S
C667        C668   1.392       .  A
C667        C672   1.383       .  A
C667        H673   1.084       .  S
C668        C669   1.405       .  A
C669        C670   1.373       .  A
C669        H674   1.079       .  S
C670        C671   1.388       .  A
C670        H675   1.084       .  S
C671       C1425   1.437       .  S
C671        C672   1.409       .  A
C672        H676   1.084       .  S
C677        C678   1.417       .  A
C677        C682   1.434       .  A
C677        H683   1.073       .  S
C678        C679   1.383       .  A
C679        C680   1.396       .  A
C679        H684   1.083       .  S
C680        C681   1.404       .  A
C680        H685   1.048       .  S
C681        C682   1.407       .  A
C682        H686   1.081       .  S
C687        C688   1.406       .  A
C687        C692   1.426       .  A
C687        H693   1.080       .  S
C688        C689   1.410       .  A
C689        C690   1.381       .  A
C689        H694   1.063       .  S
C690        C691   1.388       .  A
C690        H695   1.081       .  S
C691        C692   1.423       .  A
C692        H696   1.083       .  S
C697        C698   1.395       .  A
C697        C702   1.400       .  A
C697        H703   1.081       .  S
C698        C699   1.419       .  A
C699        C700   1.398       .  A
C699        H704   1.083       .  S
C700        C701   1.396       .  A
C700        H705   1.083       .  S
C701        C702   1.416       .  A
C702        H706   1.079       .  S
C707        C708   1.409       .  A
C707        C712   1.394       .  A
C707        H713   1.084       .  S
C708        C709   1.397       .  A
C709        C710   1.403       .  A
C709        H714   1.076       .  S
C710        C711   1.408       .  A
C710        H715   1.083       .  S
C711        C712   1.400       .  A
C712        H716   1.083       .  S
C717        C718   1.407       .  A
C717        C722   1.400       .  A
C717        H723   1.084       .  S
C718        C719   1.395       .  A
C719        C720   1.388       .  A
C719        H724   1.084       .  S
C720        C721   1.409       .  A
C720        H725   1.084       .  S
C721        C722   1.401       .  A
C722        H726   1.082       .  S
C727        C728   1.407       .  A
C727        C732   1.408       .  A
C727        H733   1.082       .  S
C728        C729   1.390       .  A
C729        C730   1.384       .  A
C729        H734   1.084       .  S
C730        C731   1.411       .  A
C730        H735   1.071       .  S
C731        C732   1.403       .  A
C732        H736   1.081       .  S
C737        C738   1.413       .  A
C737        C742   1.413       .  A
C737        H743   1.081       .  S
C738        C739   1.407       .  A
C739        H744   1.068       .  S
C740        C741   1.398       .  A
C740        H745   1.087       .  S
C742        H746   1.082   1_556  S
C747        C748   1.409       .  A
C747        C752   1.411       .  A
C747        H753   1.083       .  S
C749        H754   1.084       .  S
C750        C751   1.411       .  A
C751        C752   1.408       .  A
C752        H756   1.083       .  S
C757        C758   1.402       .  A
C758        C759   1.417       .  A
C759        C760   1.425       .  A
C759        H764   1.084       .  S
C760        C761   1.479       .  A
C760        H765   1.078       .  S
C762        H766   1.081   1_554  S
C767        C772   1.397       .  A
C767        H773   1.084       .  S
C768        C769   1.401       .  A
C769        C770   1.381       .  A
C769        H774   1.083       .  S
C770        C771   1.397   1_556  A
C770        H775   1.082       .  S
C772        H776   1.083       .  S
C777       C1634   1.410       .  A
C777        C782   1.395       .  A
C777        H783   1.083   1_565  S
C778       C1633   1.410       .  A
C778        C779   1.401       .  A
C779        C780   1.398       .  A
C779        H784   1.083       .  S
C780        C781   1.411       .  A
C780        H785   1.084       .  S
C781       C1402   1.470       .  S
C781       C1638   1.399       .  A
C782       C1637   1.399       .  A
C782        H786   1.083       .  S
C787        C788   1.388       .  A
C787        C792   1.392       .  A
C787        H793   1.084       .  S
C788        C789   1.407       .  A
C789        C790   1.392       .  A
C789        H794   1.081       .  S
C790        C791   1.399       .  A
C790        H795   1.084       .  S
C791        C792   1.412       .  A
C792        H796   1.068       .  S
C797        C798   1.403       .  A
C797        C802   1.405       .  A
C797        H803   1.083       .  S
C798        C799   1.416       .  A
C799        C800   1.406       .  A
C799       H1660   1.083   1_545  S
C800        C801   1.401       .  A
C800       H1661   1.082   1_545  S
C801        C802   1.416       .  A
C802        H806   1.083       .  S
H804       C1655   1.083       .  S
H805       C1656   1.082       .  S
C807        C808   1.393       .  A
C807        C812   1.402       .  A
C807        H813   1.083       .  S
C808        C809   1.421       .  A
C809        C810   1.400       .  A
C809        H814   1.083       .  S
C810        C811   1.393       .  A
C810        H815   1.083       .  S
C811        C812   1.421       .  A
C812        H816   1.080       .  S
C817        C818   1.421       .  A
C817        C822   1.402       .  A
C817        H823   1.082       .  S
C818        C819   1.386       .  A
C819        C820   1.390       .  A
C819        H824   1.084       .  S
C820        C821   1.416       .  A
C820        H825   1.068       .  S
C821        C822   1.396       .  A
C822        H826   1.083       .  S
C827        C828   1.416       .  A
C827        C832   1.419       .  A
C827        H833   1.083   1_455  S
C828        C829   1.433       .  A
C829        C830   1.462       .  A
C829        H834   1.082       .  S
C830        C831   1.432       .  A
C830        H835   1.080       .  S
C831        C832   1.422       .  A
C832        H836   1.083   1_455  S
C837        C838   1.553   1_455  A
C837        C842   1.424       .  A
C837        H843   1.081       .  S
C838       C2158   1.842       .  S
C838       C2551   1.570       .  A
C839       C2550   1.570       .  A
C839        C840   1.432       .  A
C839        H844   1.083       .  S
C840       C2553   1.426       .  A
C840        H845   1.071       .  S
C841       C2552   1.426       .  A
C841        C842   1.407   1_655  A
C842        H846   1.071       .  S
C847       C2560   1.409       .  A
C847        C852   1.377       .  A
C847        H853   1.073   1_655  S
C848       C2559   1.409       .  A
C848        C849   1.398       .  A
C849        C850   1.397       .  A
C849        H854   1.083       .  S
C850        C851   1.414       .  A
C850        H855   1.084       .  S
C851       C2564   1.387       .  A
C852       C2563   1.387       .  A
C852        H856   1.084   1_655  S
O857        C884   1.256       .  A
O857       Mn883   1.998       .  S
C858       O2603   1.230       .  A
C858       O2600   1.269       .  A
C858       C1276   1.444       .  S
O859      Mn3006   2.093       .  S
O859      Mn1733   2.114       .  S
O859       Mn883   2.098   1_655  S
O860        C870   1.276       .  A
O860       Mn894   2.179       .  S
O861      Mn2589   2.151   1_445  S
O862        C889   1.273       .  A
O862       Mn881   2.292       .  S
O863      Mn1322   1.960       .  S
O863       Mn883   1.977       .  S
O863        C879   1.213       .  S
C864        O867   1.229       .  A
C864       C1186   1.499       .  S
C864        O890   1.265       .  S
O865       Mn885   1.945       .  S
O865      Mn1327   1.986   1_554  S
O865      Mn3021   2.147   1_554  S
Mn866       O895   2.011       .  S
Mn866      O1299   2.057   1_554  S
Mn866      O1326   2.107       .  S
Mn866      O2999   2.093   1_554  S
Mn866      O2584   2.134       .  S
O867      Mn1309   1.937   1_554  S
O868        C870   1.251       .  A
O868       Mn875   2.032       .  S
C869        O895   1.251       .  A
C869       C1236   1.485       .  S
C870       C1226   1.500       .  S
O871      Mn1294   2.057       .  S
O872      Mn2578   2.134   1_455  S
O872       Mn875   2.185       .  S
O872       Mn894   2.044       .  S
O873       Mn877   1.974       .  S
O873       Mn899   2.061       .  S
O873        C896   1.240       .  S
C874        O900   1.152       .  A
C874       O1304   1.377       .  A
C874       C2978   1.843       .  S
Mn875       O888   2.171   1_455  S
Mn875      O1738   1.988   1_455  S
O876       C1302   1.377       .  A
O876       Mn899   2.443       .  S
Mn877      O2573   2.151   1_565  S
Mn877      O1715   2.114   1_565  S
Mn877       O887   2.024       .  S
O878        C880   1.263       .  A
O878      Mn2595   2.010       .  S
C879        O897   1.261       .  A
C879       C1196   1.443       .  S
C880        O893   1.287       .  A
C880       C1246   1.476       .  S
Mn881      O1295   1.937       .  S
Mn881      O3005   2.147   1_455  S
O882      Mn1731   1.988       .  S
O882       Mn885   1.977       .  S
Mn883      O2590   2.010   1_455  S
Mn883       O901   1.912   1_455  S
C884       C1216   1.452       .  S
Mn885       O892   2.163       .  S
Mn885       O900   1.814       .  S
Mn885      O2602   2.031       .  S
C886        O892   1.262       .  A
C886       O1330   1.231   1_554  A
C886       C1169   1.451       .  S
O887       Mn899   2.006       .  S
O887       C2601   1.206       .  S
O888       C2570   1.269       .  A
C889       C1256   1.579       .  S
C889       O2599   1.206   1_455  S
O890      Mn2597   2.031   1_455  S
O891       C2570   1.230       .  A
O891       Mn894   2.032   1_655  S
Mn894      O1291   1.960   1_554  S
Mn894      O1329   1.939   1_455  S
C896       C1206   1.479       .  S
O898        C903   1.246       .  A
O898      Mn1294   2.107       .  S
Mn899       O902   1.935       .  S
Mn899      O1293   1.986       .  S
O901      Mn1322   1.939   1_655  S
O901       C2615   1.213       .  S
O902       C1314   1.231       .  A
C903       C1604   1.487       .  S
C903       O2613   1.213       .  S
O904        C931   1.270       .  A
O904       Mn930   2.062   1_455  S
C905       O2650   1.240       .  A
C905       O2647   1.273       .  A
C905       C1279   1.447       .  S
O906       Mn913   2.120       .  S
O906       Mn924   2.112       .  S
O906      Mn2640   2.079       .  S
O906      Mn2642   2.155       .  S
O907        C917   1.280       .  A
O907       Mn941   2.190   1_455  S
O908        C931   1.287       .  A
O908      Mn2636   2.126   1_455  S
O909        C936   1.293       .  A
O909       Mn928   2.313       .  S
O910       Mn941   1.973   1_455  S
O910       Mn930   2.016   1_455  S
O910        C926   1.241       .  S
C911        O914   1.240       .  A
C911       C1116   1.514       .  S
C911        O937   1.258       .  S
O912       Mn932   2.091       .  S
O912       Mn913   2.044       .  S
O912       Mn946   2.107       .  S
O912      Mn2640   2.166       .  S
Mn913       O942   2.013       .  S
Mn913       O918   2.100       .  S
Mn913       O945   1.986       .  S
Mn913      O2631   2.106       .  S
O914       Mn928   2.023       .  S
O915        C917   1.249       .  A
O915       Mn922   2.014   1_455  S
C916        O942   1.250       .  A
C916       C1126   1.487       .  S
C916        O929   1.247       .  S
C917       C1136   1.475       .  S
O918        C943   1.250       .  A
O919      Mn2625   2.106       .  S
O919       Mn922   2.145       .  S
O919       Mn941   2.099       .  S
O919       Mn928   2.155   1_655  S
O920       Mn924   1.933       .  S
O920       Mn946   2.023       .  S
O920        C943   1.220       .  S
C921       O2659   1.213   1_655  A
C921       O2635   1.290       .  A
C921       C1269   1.590       .  S
Mn922       O935   2.139       .  S
Mn922       O937   2.023   1_655  S
Mn922      O2641   1.977       .  S
O923       C2633   1.290       .  A
O923       Mn946   2.330       .  S
Mn924      O2620   2.126       .  S
Mn924       O940   2.160       .  S
Mn924       O934   2.027       .  S
O925        C927   1.255       .  A
O925      Mn2642   2.003       .  S
C926        O944   1.276       .  A
C926       C1106   1.504       .  S
C927        O940   1.281       .  A
C927       C1249   1.483       .  S
Mn928       O944   2.131       .  S
Mn928      O2618   2.079   1_455  S
Mn928      O2624   2.166   1_455  S
O929      Mn2634   1.977       .  S
O929       Mn932   1.978       .  S
Mn930      O2637   2.003       .  S
Mn930      O2618   2.155       .  S
Mn930      O2660   1.987       .  S
C931       C1146   1.458       .  S
Mn932       O939   2.128       .  S
Mn932       O947   2.023       .  S
Mn932      O2649   1.946       .  S
C933        O939   1.263       .  A
C933        O949   1.247       .  A
C933       C1096   1.427       .  S
O934       Mn946   2.020       .  S
O934       C2648   1.208       .  S
O935       C2617   1.273       .  A
C936       C1259   1.583       .  S
C936       O2646   1.208   1_455  S
O937      Mn2644   1.946   1_455  S
O938       C2617   1.240       .  A
O938       Mn941   2.045       .  S
Mn941      O2660   2.027       .  S
C943       C1156   1.465       .  S
O945        C950   1.230       .  A
Mn946       O949   2.012       .  S
O947       C2633   1.213       .  A
O948      Mn2642   1.987       .  S
O948      Mn2653   2.027       .  S
O948        C950   1.251       .  S
C950       C1086   1.519       .  S
O951        C978   1.280       .  A
O951       Mn977   2.121       .  S
C952        O985   1.245       .  A
C952        O982   1.285       .  A
C952       C1239   1.488       .  S
O953       Mn960   2.108       .  S
O953       Mn971   2.110       .  S
O953       Mn975   2.086       .  S
O953       Mn977   2.101       .  S
O954        C964   1.284       .  A
O954       Mn988   2.188       .  S
O955        C978   1.275       .  A
O955       Mn971   2.067       .  S
O956        C983   1.274       .  A
O956       Mn975   2.153       .  S
O957       Mn988   1.937       .  S
O957       Mn977   1.974       .  S
O957        C973   1.208       .  S
C958        O961   1.240       .  A
C958       C1109   1.526       .  S
C958        O984   1.256       .  S
O959       Mn979   2.109       .  S
O959       Mn960   2.047       .  S
O959       Mn975   2.227       .  S
Mn960       O966   2.184       .  S
O961       Mn975   2.044       .  S
O962        C964   1.254       .  A
O962       Mn969   2.032       .  S
C963        O989   1.255       .  A
C963       C1056   1.446       .  S
C964       C1046   1.476       .  S
O965        C990   1.265       .  A
O966       Mn969   2.131       .  S
O966       Mn988   2.100       .  S
O966       Mn975   2.124       .  S
O967       Mn993   2.037       .  S
O967        C990   1.216       .  S
C968        O994   1.224       .  A
C968        O970   1.271       .  A
C968       C1229   1.488       .  S
Mn969       O982   2.198       .  S
Mn969       O984   2.045       .  S
Mn969       O976   1.979       .  S
Mn971       O981   1.973       .  S
O972        C974   1.255       .  A
O972       Mn977   2.052       .  S
C973        O991   1.278       .  A
C973       C1089   1.517       .  S
Mn975       O991   2.207       .  S
O976       Mn979   1.972       .  S
Mn977       O995   1.947       .  S
C978       C1076   1.468       .  S
Mn979       O994   2.002       .  S
Mn979       O984   1.954       .  S
C980        O986   1.276       .  A
C980        O996   1.283       .  A
C980       C1119   1.497       .  S
O981        C983   1.208       .  S
C983       C1219   1.458       .  S
O985       Mn988   2.027       .  S
Mn988       O995   1.957       .  S
C990       C1069   1.534       .  S
Mn993       O996   2.100       .  S
O995        C997   1.222       .  S
O998       C1025   1.273       .  A
O998      Mn1024   2.129       .  S
C999       O1032   1.253       .  A
C999       O1029   1.276       .  A
C999       C1199   1.457       .  S
O1000     Mn1435   2.150       .  S
O1000     Mn1446   2.053       .  S
O1000     Mn1022   2.139       .  S
O1000     Mn1024   2.092       .  S
O1001      C1011   1.285       .  A
O1001     Mn1035   2.179       .  S
O1002      C1025   1.257       .  A
O1002     Mn1446   2.050       .  S
O1003      C1030   1.253       .  A
O1003     Mn1022   2.218       .  S
O1004     Mn1035   1.892       .  S
O1004     Mn1024   1.893       .  S
O1004      C1020   1.199       .  S
C1005      O1008   1.251       .  A
C1005      C1066   1.548       .  S
C1005      O1031   1.271       .  S
O1006     Mn1026   2.127       .  S
O1006     Mn1007   2.076       .  S
O1006     Mn1040   2.038       .  S
O1006     Mn1450   2.231   1_554  S
Mn1007     O1036   2.081       .  S
Mn1007     O1012   2.137       .  S
Mn1007     O1039   2.038       .  S
Mn1007     O1428   2.150       .  S
Mn1007     O1441   2.135   1_554  S
O1008     Mn1022   2.018       .  S
O1009      C1011   1.261       .  A
O1009     Mn1016   2.019       .  S
C1010      O1036   1.260       .  A
C1010      C1139   1.476       .  S
C1010      O1023   1.227       .  S
C1011      C1149   1.469       .  S
O1012      C1037   1.264       .  A
O1013     Mn1435   2.135       .  S
O1013     Mn1016   2.114       .  S
O1013     Mn1035   2.081       .  S
O1013     Mn1022   2.120       .  S
O1014     Mn1018   1.983       .  S
O1014     Mn1040   2.041       .  S
O1014      C1037   1.213       .  S
C1015      O1469   1.176       .  A
C1015      O1017   1.296       .  A
C1015      C1617   1.744       .  S
Mn1016     O1029   2.121       .  S
Mn1016     O1031   2.073       .  S
Mn1016     O1451   1.911       .  S
O1017     Mn1468   2.191       .  S
Mn1018     O1430   2.050   1_554  S
Mn1018     O1034   2.174       .  S
Mn1018     O1428   2.053       .  S
Mn1018     O1456   1.928   1_554  S
O1019      C1449   1.250       .  A
O1019     Mn1024   2.033       .  S
C1020      O1038   1.270       .  A
C1020      C1079   1.489       .  S
C1021      O1447   1.250       .  A
C1021      O1034   1.283       .  A
C1021      C1179   1.485       .  S
Mn1022     O1038   2.215       .  S
Mn1022     O1434   2.231       .  S
O1023     Mn1444   1.911   1_554  S
O1023     Mn1026   1.947       .  S
Mn1024     O1042   1.966       .  S
C1025      C1159   1.489       .  S
Mn1026     O1033   2.117       .  S
Mn1026     O1041   1.989       .  S
Mn1026     O1459   2.039   1_554  S
C1027      O1033   1.282       .  A
C1027      O1043   1.266       .  A
C1027      C1059   1.448       .  S
O1028     Mn1446   1.928       .  S
O1028     Mn1468   1.865       .  S
O1028      C1030   1.180       .  S
C1030      C1166   1.466       .  S
O1031     Mn1454   2.039       .  S
O1032     Mn1035   2.035       .  S
Mn1035     O1042   2.033       .  S
C1037      C1129   1.485       .  S
O1039      C1044   1.239       .  A
Mn1040     O1445   2.191   1_554  S
Mn1040     O1043   2.019       .  S
Mn1040     O1456   1.865   1_554  S
O1041      C1443   1.176   1_554  A
O1042      C1472   1.230       .  S
C1044      C1049   1.497       .  S
C1044      O1470   1.230       .  S
C1045      C1046   1.414       .  A
C1045      C1050   1.411       .  A
C1045      H1051   1.083       .  S
C1046      C1047   1.399       .  A
C1047      C1048   1.399       .  A
C1047      H1052   1.084       .  S
C1048      C1049   1.413       .  A
C1048      H1053   1.083       .  S
C1049      C1050   1.404       .  A
C1050      H1054   1.083       .  S
C1055      C1056   1.386       .  A
C1055      C1060   1.375       .  A
C1055      H1061   1.083       .  S
C1056      C1057   1.412       .  A
C1057      C1058   1.395       .  A
C1057      H1062   1.082       .  S
C1058      C1059   1.392       .  A
C1058      H1063   1.083       .  S
C1059      C1060   1.408       .  A
C1060      H1064   1.084       .  S
C1065      C1066   1.428       .  A
C1065      C1070   1.416       .  A
C1065      H1071   1.083       .  S
C1066      C1067   1.413       .  A
C1067      C1068   1.428       .  A
C1067      H1072   1.071       .  S
C1068      C1069   1.421       .  A
C1068      H1073   1.083       .  S
C1069      C1070   1.404       .  A
C1070      H1074   1.083       .  S
C1075      C1076   1.385       .  A
C1075      C1080   1.372       .  A
C1075      H1081   1.085       .  S
C1076      C1077   1.415       .  A
C1077      C1078   1.418       .  A
C1077      H1082   1.080       .  S
C1078      C1079   1.405       .  A
C1078      H1083   1.081       .  S
C1079      C1080   1.416       .  A
C1080      H1084   1.081       .  S
C1085      C1086   1.401       .  A
C1085      C1090   1.418       .  A
C1085      H1091   1.083       .  S
C1086      C1087   1.428       .  A
C1087      C1088   1.408       .  A
C1087      H1092   1.082       .  S
C1088      C1089   1.395       .  A
C1088      H1093   1.083       .  S
C1089      C1090   1.429       .  A
C1090      H1094   1.083       .  S
C1095      C1096   1.392       .  A
C1095      C1100   1.383       .  A
C1095      H1101   1.084       .  S
C1096      C1097   1.405       .  A
C1097      C1098   1.373       .  A
C1097      H1102   1.079       .  S
C1098      C1099   1.388       .  A
C1098      H1103   1.084       .  S
C1099      C1100   1.409       .  A
C1100      H1104   1.084       .  S
C1105      C1106   1.417       .  A
C1105      C1110   1.434       .  A
C1105      H1111   1.073       .  S
C1106      C1107   1.383       .  A
C1107      C1108   1.396       .  A
C1107      H1112   1.083       .  S
C1108      C1109   1.404       .  A
C1108      H1113   1.048       .  S
C1109      C1110   1.407       .  A
C1110      H1114   1.081       .  S
C1115      C1116   1.406       .  A
C1115      C1120   1.426       .  A
C1115      H1121   1.080       .  S
C1116      C1117   1.410       .  A
C1117      C1118   1.381       .  A
C1117      H1122   1.063       .  S
C1118      C1119   1.388       .  A
C1118      H1123   1.081       .  S
C1119      C1120   1.423       .  A
C1120      H1124   1.083       .  S
C1125      C1126   1.395       .  A
C1125      C1130   1.400       .  A
C1125      H1131   1.081       .  S
C1126      C1127   1.419       .  A
C1127      C1128   1.398       .  A
C1127      H1132   1.083       .  S
C1128      C1129   1.396       .  A
C1128      H1133   1.083       .  S
C1129      C1130   1.416       .  A
C1130      H1134   1.079       .  S
C1135      C1136   1.409       .  A
C1135      C1140   1.394       .  A
C1135      H1141   1.084       .  S
C1136      C1137   1.397       .  A
C1137      C1138   1.403       .  A
C1137      H1142   1.076       .  S
C1138      C1139   1.408       .  A
C1138      H1143   1.083       .  S
C1139      C1140   1.400       .  A
C1140      H1144   1.083       .  S
C1145      C1146   1.407       .  A
C1145      C1150   1.400       .  A
C1145      H1151   1.084       .  S
C1146      C1147   1.395       .  A
C1147      C1148   1.388       .  A
C1147      H1152   1.084       .  S
C1148      C1149   1.409       .  A
C1148      H1153   1.084       .  S
C1149      C1150   1.401       .  A
C1150      H1154   1.082       .  S
C1155      C1156   1.407       .  A
C1155      C1160   1.408       .  A
C1155      H1161   1.082       .  S
C1156      C1157   1.390       .  A
C1157      C1158   1.384       .  A
C1157      H1162   1.084       .  S
C1158      C1159   1.411       .  A
C1158      H1163   1.071       .  S
C1159      C1160   1.403       .  A
C1160      H1164   1.081       .  S
C1165      C1166   1.413       .  A
C1165      C1170   1.413       .  A
C1165      H1171   1.081       .  S
C1166      C1167   1.407       .  A
C1167      C1596   1.389       .  A
C1167      H1172   1.068       .  S
C1168      C1595   1.389   1_554  A
C1168      C1169   1.398       .  A
C1168      H1173   1.087       .  S
C1169      C1598   1.410   1_554  A
C1170      C1597   1.410       .  A
C1170      H1174   1.082       .  S
C1175      C1176   1.409       .  A
C1175      C1180   1.411       .  A
C1175      H1181   1.083   1_554  S
C1176      C1331   1.487       .  S
C1176      C1605   1.401       .  A
C1177      C1604   1.401       .  A
C1177      C1606   1.396       .  A
C1177      H1182   1.084       .  S
C1178      C1605   1.396       .  A
C1178      C1179   1.411       .  A
C1178      H1611   1.084       .  S
C1179      C1180   1.408       .  A
C1180      H1184   1.083   1_554  S
H1183      C1606   1.084       .  S
C1185      C1186   1.402       .  A
C1185      C1618   1.407       .  A
C1185      H1619   1.084       .  S
C1186      C1187   1.417       .  A
C1187      C1188   1.425       .  A
C1187      H1192   1.084       .  S
C1188      C1189   1.479       .  A
C1188      H1193   1.078       .  S
C1189      C1443   1.744   1_554  S
C1189      C1618   1.560       .  A
C1190      C1613   1.407       .  A
C1190      C1617   1.560       .  A
C1190      H1194   1.081       .  S
H1191      C1613   1.084       .  S
C1195      C1624   1.400   1_554  A
C1195      C1200   1.397       .  A
C1195      H1201   1.084       .  S
C1196      C1623   1.400       .  A
C1196      C1197   1.401       .  A
C1197      C1198   1.381       .  A
C1197      H1202   1.083       .  S
C1198      C1199   1.397       .  A
C1198      H1203   1.082       .  S
C1199      C1628   1.407       .  A
C1200      C1627   1.407       .  A
C1200      H1204   1.083       .  S
C1205      C1210   1.395       .  A
C1205      H1211   1.083       .  S
C1206      C1207   1.401       .  A
C1207      C1208   1.398       .  A
C1207      H1212   1.083       .  S
C1208      C1209   1.411       .  A
C1208      H1213   1.084       .  S
C1210      H1214   1.083       .  S
C1215      C1216   1.388       .  A
C1215      C1220   1.392       .  A
C1215      H1221   1.084       .  S
C1216      C1217   1.407       .  A
C1217      C1218   1.392       .  A
C1217      H1222   1.081       .  S
C1218      C1219   1.399       .  A
C1218      H1223   1.084       .  S
C1219      C1220   1.412       .  A
C1220      H1224   1.068       .  S
C1225      C1226   1.403       .  A
C1225      C1230   1.405       .  A
C1225      H1231   1.083       .  S
C1226      C1227   1.416       .  A
C1227      C1228   1.406       .  A
C1228      C1229   1.401       .  A
C1229      C1230   1.416       .  A
C1230      H1234   1.083       .  S
C1235      C1236   1.393       .  A
C1235      C1240   1.402       .  A
C1235      H1241   1.083       .  S
C1236      C1237   1.421       .  A
C1237      C1238   1.400       .  A
C1237      H1242   1.083       .  S
C1238      C1239   1.393       .  A
C1238      H1243   1.083       .  S
C1239      C1240   1.421       .  A
C1240      H1244   1.080       .  S
C1245      C1246   1.421       .  A
C1245      C1250   1.402       .  A
C1245      H1251   1.082       .  S
C1246      C1247   1.386       .  A
C1247      C1248   1.390       .  A
C1247      H1252   1.084       .  S
C1248      C1249   1.416       .  A
C1248      H1253   1.068       .  S
C1249      C1250   1.396       .  A
C1250      H1254   1.083       .  S
C1255      C1256   1.416       .  A
C1255      C1260   1.419       .  A
C1255      H1261   1.083   1_455  S
C1256      C1257   1.433       .  A
C1257      C1258   1.462       .  A
C1257      H1262   1.082       .  S
C1258      C1259   1.432       .  A
C1258      H1263   1.080       .  S
C1259      C1260   1.422       .  A
C1260      H1264   1.083   1_455  S
C1265      C1266   1.553   1_455  A
C1265      C1270   1.424       .  A
C1265      H1271   1.081       .  S
C1266      C2586   1.842       .  S
C1266      C2979   1.570       .  A
C1267      C2978   1.570       .  A
C1267      C1268   1.432       .  A
C1267      H1272   1.083       .  S
C1268      C2981   1.426       .  A
C1268      H1273   1.071       .  S
C1269      C2980   1.426       .  A
C1269      C1270   1.407   1_655  A
C1270      H1274   1.071       .  S
C1275      C2988   1.409       .  A
C1275      C1280   1.377       .  A
C1275      H1281   1.073   1_655  S
C1276      C2987   1.409       .  A
C1276      C1277   1.398       .  A
C1277      C1278   1.397       .  A
C1277      H1282   1.083       .  S
C1278      C1279   1.414       .  A
C1278      H1283   1.084       .  S
C1279      C2992   1.387       .  A
C1280      C2991   1.387       .  A
C1280      H1284   1.084   1_655  S
O1285      C1312   1.256       .  A
O1285     Mn1311   1.998       .  S
C1286      O3031   1.230       .  A
C1286      O3028   1.269       .  A
C1286      C1704   1.444       .  S
O1287     Mn2578   2.093   1_556  S
O1287     Mn2161   2.114       .  S
O1287     Mn1311   2.098   1_655  S
O1288      C1298   1.276       .  A
O1288     Mn1322   2.179       .  S
O1289     Mn3017   2.151   1_445  S
O1290      C1317   1.273       .  A
O1290     Mn1309   2.292       .  S
O1291     Mn1311   1.977       .  S
O1291      C1307   1.213       .  S
C1292      O1295   1.229       .  A
C1292      C1614   1.499       .  S
C1292      O1318   1.265       .  S
O1293     Mn1313   1.945       .  S
O1293     Mn2593   2.147       .  S
Mn1294     O1323   2.011       .  S
Mn1294     O2571   2.093       .  S
Mn1294     O3012   2.134       .  S
O1296      C1298   1.251       .  A
O1296     Mn1303   2.032       .  S
C1297      O1323   1.251       .  A
C1297      C1664   1.485       .  S
C1298      C1654   1.500       .  S
O1300     Mn3006   2.134   1_455  S
O1300     Mn1303   2.185       .  S
O1300     Mn1322   2.044       .  S
O1301     Mn1305   1.974       .  S
O1301     Mn1327   2.061       .  S
O1301      C1324   1.240       .  S
C1302      O1328   1.152       .  A
C1302      C3406   1.843       .  S
Mn1303     O1316   2.171   1_455  S
Mn1303     O2166   1.988   1_455  S
O1304     Mn1327   2.443   1_554  S
Mn1305     O3001   2.151   1_565  S
Mn1305     O2143   2.114   1_565  S
Mn1305     O1315   2.024       .  S
O1306      C1308   1.263       .  A
O1306     Mn3023   2.010       .  S
C1307      O1325   1.261       .  A
C1307      C1624   1.443       .  S
C1308      O1321   1.287       .  A
C1308      C1674   1.476       .  S
Mn1309     O2577   2.147   1_456  S
O1310     Mn2159   1.988       .  S
O1310     Mn1313   1.977       .  S
Mn1311     O3018   2.010   1_455  S
Mn1311     O1329   1.912   1_456  S
C1312      C1644   1.452       .  S
Mn1313     O1320   2.163       .  S
Mn1313     O1328   1.814       .  S
Mn1313     O3030   2.031       .  S
C1314      O1320   1.262       .  A
C1314      C1597   1.451       .  S
O1315     Mn1327   2.006       .  S
O1315      C3029   1.206       .  S
O1316      C2998   1.269       .  A
C1317      C1684   1.579       .  S
C1317      O3027   1.206   1_455  S
O1318     Mn3025   2.031   1_455  S
O1319      C2998   1.230       .  A
O1319     Mn1322   2.032   1_655  S
C1324      C1634   1.479       .  S
O1326      C1331   1.246       .  A
Mn1327     O1330   1.935       .  S
O1329      C3043   1.213       .  S
C1331      O3041   1.213       .  S
O1332      C1359   1.270       .  A
O1332     Mn1358   2.062   1_455  S
C1333      O3078   1.240       .  A
C1333      O3075   1.273       .  A
C1333      C1707   1.447       .  S
O1334     Mn1341   2.120       .  S
O1334     Mn1352   2.112       .  S
O1334     Mn3068   2.079       .  S
O1334     Mn3070   2.155       .  S
O1335      C1345   1.280       .  A
O1335     Mn1369   2.190   1_455  S
O1336      C1359   1.287       .  A
O1336     Mn3064   2.126   1_455  S
O1337      C1364   1.293       .  A
O1337     Mn1356   2.313       .  S
O1338     Mn1369   1.973   1_455  S
O1338     Mn1358   2.016   1_455  S
O1338      C1354   1.241       .  S
C1339      O1342   1.240       .  A
C1339      C1544   1.514       .  S
C1339      O1365   1.258       .  S
O1340     Mn1360   2.091       .  S
O1340     Mn1341   2.044       .  S
O1340     Mn1374   2.107       .  S
O1340     Mn3068   2.166       .  S
Mn1341     O1370   2.013       .  S
Mn1341     O1346   2.100       .  S
Mn1341     O1373   1.986       .  S
Mn1341     O3059   2.106       .  S
O1342     Mn1356   2.023       .  S
O1343      C1345   1.249       .  A
O1343     Mn1350   2.014   1_455  S
C1344      O1370   1.250       .  A
C1344      C1554   1.487       .  S
C1344      O1357   1.247       .  S
C1345      C1564   1.475       .  S
O1346      C1371   1.250       .  A
O1347     Mn3053   2.106       .  S
O1347     Mn1350   2.145       .  S
O1347     Mn1369   2.099       .  S
O1347     Mn1356   2.155   1_655  S
O1348     Mn1352   1.933       .  S
O1348     Mn1374   2.023       .  S
O1348      C1371   1.220       .  S
C1349      O3087   1.213   1_655  A
C1349      O3063   1.290       .  A
C1349      C1697   1.590       .  S
Mn1350     O1363   2.139       .  S
Mn1350     O1365   2.023   1_655  S
Mn1350     O3069   1.977       .  S
O1351      C3061   1.290       .  A
O1351     Mn1374   2.330       .  S
Mn1352     O3048   2.126       .  S
Mn1352     O1368   2.160       .  S
Mn1352     O1362   2.027       .  S
O1353      C1355   1.255       .  A
O1353     Mn3070   2.003       .  S
C1354      O1372   1.276       .  A
C1354      C1534   1.504       .  S
C1355      O1368   1.281       .  A
C1355      C1677   1.483       .  S
Mn1356     O1372   2.131       .  S
Mn1356     O3046   2.079   1_455  S
Mn1356     O3052   2.166   1_455  S
O1357     Mn3062   1.977       .  S
O1357     Mn1360   1.978       .  S
Mn1358     O3065   2.003       .  S
Mn1358     O3046   2.155       .  S
Mn1358     O3088   1.987       .  S
C1359      C1574   1.458       .  S
Mn1360     O1367   2.128       .  S
Mn1360     O1375   2.023       .  S
Mn1360     O3077   1.946       .  S
C1361      O1367   1.263       .  A
C1361      O1377   1.247       .  A
C1361      C1524   1.427       .  S
O1362     Mn1374   2.020       .  S
O1362      C3076   1.208       .  S
O1363      C3045   1.273       .  A
C1364      C1687   1.583       .  S
C1364      O3074   1.208   1_455  S
O1365     Mn3072   1.946   1_455  S
O1366      C3045   1.240       .  A
O1366     Mn1369   2.045       .  S
Mn1369     O3088   2.027       .  S
C1371      C1584   1.465       .  S
O1373      C1378   1.230       .  A
Mn1374     O1377   2.012       .  S
O1375      C3061   1.213       .  A
O1376     Mn3070   1.987       .  S
O1376     Mn3081   2.027       .  S
O1376      C1378   1.251       .  S
C1378      C1514   1.519       .  S
O1379      C1406   1.280       .  A
O1379     Mn1405   2.121       .  S
C1380      O1413   1.245       .  A
C1380      O1410   1.285       .  A
C1380      C1667   1.488       .  S
O1381     Mn1388   2.108       .  S
O1381     Mn1399   2.110       .  S
O1381     Mn1403   2.086       .  S
O1381     Mn1405   2.101       .  S
O1382      C1392   1.284       .  A
O1382     Mn1416   2.188       .  S
O1383      C1406   1.275       .  A
O1383     Mn1399   2.067       .  S
O1384      C1411   1.274       .  A
O1384     Mn1403   2.153       .  S
O1385     Mn1416   1.937       .  S
O1385     Mn1405   1.974       .  S
O1385      C1401   1.208       .  S
C1386      O1389   1.240       .  A
C1386      C1537   1.526       .  S
C1386      O1412   1.256       .  S
O1387     Mn1407   2.109       .  S
O1387     Mn1388   2.047       .  S
O1387     Mn1403   2.227       .  S
Mn1388     O1394   2.184       .  S
O1389     Mn1403   2.044       .  S
O1390      C1392   1.254       .  A
O1390     Mn1397   2.032       .  S
C1391      O1417   1.255       .  A
C1391      C1484   1.446       .  S
C1392      C1474   1.476       .  S
O1393      C1418   1.265       .  A
O1394     Mn1397   2.131       .  S
O1394     Mn1416   2.100       .  S
O1394     Mn1403   2.124       .  S
O1395     Mn1421   2.037       .  S
O1395      C1418   1.216       .  S
C1396      O1422   1.224       .  A
C1396      O1398   1.271       .  A
C1396      C1657   1.488       .  S
Mn1397     O1410   2.198       .  S
Mn1397     O1412   2.045       .  S
Mn1397     O1404   1.979       .  S
Mn1399     O1409   1.973       .  S
O1400      C1402   1.255       .  A
O1400     Mn1405   2.052       .  S
C1401      O1419   1.278       .  A
C1401      C1517   1.517       .  S
Mn1403     O1419   2.207       .  S
O1404     Mn1407   1.972       .  S
Mn1405     O1423   1.947       .  S
C1406      C1504   1.468       .  S
Mn1407     O1422   2.002       .  S
Mn1407     O1412   1.954       .  S
C1408      O1414   1.276       .  A
C1408      O1424   1.283       .  A
C1408      C1547   1.497       .  S
O1409      C1411   1.208       .  S
C1411      C1647   1.458       .  S
O1413     Mn1416   2.027       .  S
Mn1416     O1423   1.957       .  S
C1418      C1497   1.534       .  S
Mn1421     O1424   2.100       .  S
O1423      C1425   1.222       .  S
O1426      C1453   1.273       .  A
O1426     Mn1452   2.129       .  S
C1427      O1460   1.253       .  A
C1427      O1457   1.276   1_554  A
C1427      C1627   1.457       .  S
O1428     Mn1450   2.139   1_554  S
O1428     Mn1452   2.092   1_554  S
O1429      C1439   1.285       .  A
O1429     Mn1463   2.179       .  S
O1430      C1453   1.257       .  A
O1431      C1458   1.253       .  A
O1431     Mn1450   2.218       .  S
O1432     Mn1463   1.892       .  S
O1432     Mn1452   1.893       .  S
O1432      C1448   1.199       .  S
C1433      O1436   1.251       .  A
C1433      C1494   1.548       .  S
C1433      O1459   1.271       .  S
O1434     Mn1454   2.127       .  S
O1434     Mn1435   2.076       .  S
O1434     Mn1468   2.038       .  S
Mn1435     O1464   2.081       .  S
Mn1435     O1440   2.137       .  S
Mn1435     O1467   2.038       .  S
O1436     Mn1450   2.018       .  S
O1437      C1439   1.261       .  A
O1437     Mn1444   2.019       .  S
C1438      O1464   1.260       .  A
C1438      C1567   1.476       .  S
C1438      O1451   1.227       .  S
C1439      C1577   1.469       .  S
O1440      C1465   1.264       .  A
O1441     Mn1444   2.114       .  S
O1441     Mn1463   2.081       .  S
O1441     Mn1450   2.120       .  S
O1442     Mn1446   1.983       .  S
O1442     Mn1468   2.041       .  S
O1442      C1465   1.213       .  S
C1443      O1445   1.296       .  A
Mn1444     O1457   2.121       .  S
Mn1444     O1459   2.073       .  S
Mn1446     O1462   2.174       .  S
O1447     Mn1452   2.033   1_554  S
C1448      O1466   1.270       .  A
C1448      C1507   1.489       .  S
C1449      O1462   1.283       .  A
C1449      C1607   1.485       .  S
Mn1450     O1466   2.215       .  S
O1451     Mn1454   1.947       .  S
Mn1452     O1470   1.966   1_556  S
C1453      C1587   1.489       .  S
Mn1454     O1461   2.117       .  S
Mn1454     O1469   1.989       .  S
C1455      O1461   1.282       .  A
C1455      O1471   1.266       .  A
C1455      C1487   1.448       .  S
O1456      C1458   1.180       .  S
C1458      C1594   1.466       .  S
O1460     Mn1463   2.035   1_554  S
Mn1463     O1470   2.033   1_556  S
C1465      C1557   1.485       .  S
O1467      C1472   1.239       .  A
Mn1468     O1471   2.019       .  S
C1472      C1477   1.497       .  S
C1473      C1474   1.414       .  A
C1473      C1478   1.411       .  A
C1473      H1479   1.083       .  S
C1474      C1475   1.399       .  A
C1475      C1476   1.399       .  A
C1475      H1480   1.084       .  S
C1476      C1477   1.413       .  A
C1476      H1481   1.083       .  S
C1477      C1478   1.404       .  A
C1478      H1482   1.083       .  S
C1483      C1484   1.386       .  A
C1483      C1488   1.375       .  A
C1483      H1489   1.083       .  S
C1484      C1485   1.412       .  A
C1485      C1486   1.395       .  A
C1485      H1490   1.082       .  S
C1486      C1487   1.392       .  A
C1486      H1491   1.083       .  S
C1487      C1488   1.408       .  A
C1488      H1492   1.084       .  S
C1493      C1494   1.428       .  A
C1493      C1498   1.416       .  A
C1493      H1499   1.083       .  S
C1494      C1495   1.413       .  A
C1495      C1496   1.428       .  A
C1495      H1500   1.071       .  S
C1496      C1497   1.421       .  A
C1496      H1501   1.083       .  S
C1497      C1498   1.404       .  A
C1498      H1502   1.083       .  S
C1503      C1504   1.385       .  A
C1503      C1508   1.372       .  A
C1503      H1509   1.085       .  S
C1504      C1505   1.415       .  A
C1505      C1506   1.418       .  A
C1505      H1510   1.080       .  S
C1506      C1507   1.405       .  A
C1506      H1511   1.081       .  S
C1507      C1508   1.416       .  A
C1508      H1512   1.081       .  S
C1513      C1514   1.401       .  A
C1513      C1518   1.418       .  A
C1513      H1519   1.083       .  S
C1514      C1515   1.428       .  A
C1515      C1516   1.408       .  A
C1515      H1520   1.082       .  S
C1516      C1517   1.395       .  A
C1516      H1521   1.083       .  S
C1517      C1518   1.429       .  A
C1518      H1522   1.083       .  S
C1523      C1524   1.392       .  A
C1523      C1528   1.383       .  A
C1523      H1529   1.084       .  S
C1524      C1525   1.405       .  A
C1525      C1526   1.373       .  A
C1525      H1530   1.079       .  S
C1526      C1527   1.388       .  A
C1526      H1531   1.084       .  S
C1527      C1528   1.409       .  A
C1528      H1532   1.084       .  S
C1533      C1534   1.417       .  A
C1533      C1538   1.434       .  A
C1533      H1539   1.073       .  S
C1534      C1535   1.383       .  A
C1535      C1536   1.396       .  A
C1535      H1540   1.083       .  S
C1536      C1537   1.404       .  A
C1536      H1541   1.048       .  S
C1537      C1538   1.407       .  A
C1538      H1542   1.081       .  S
C1543      C1544   1.406       .  A
C1543      C1548   1.426       .  A
C1543      H1549   1.080       .  S
C1544      C1545   1.410       .  A
C1545      C1546   1.381       .  A
C1545      H1550   1.064       .  S
C1546      C1547   1.388       .  A
C1546      H1551   1.081       .  S
C1547      C1548   1.423       .  A
C1548      H1552   1.083       .  S
C1553      C1554   1.395       .  A
C1553      C1558   1.400       .  A
C1553      H1559   1.081       .  S
C1554      C1555   1.419       .  A
C1555      C1556   1.398       .  A
C1555      H1560   1.083       .  S
C1556      C1557   1.396       .  A
C1556      H1561   1.083       .  S
C1557      C1558   1.416       .  A
C1558      H1562   1.079       .  S
C1563      C1564   1.409       .  A
C1563      C1568   1.394       .  A
C1563      H1569   1.084       .  S
C1564      C1565   1.397       .  A
C1565      C1566   1.403       .  A
C1565      H1570   1.076       .  S
C1566      C1567   1.408       .  A
C1566      H1571   1.083       .  S
C1567      C1568   1.400       .  A
C1568      H1572   1.083       .  S
C1573      C1574   1.407       .  A
C1573      C1578   1.400       .  A
C1573      H1579   1.084       .  S
C1574      C1575   1.395       .  A
C1575      C1576   1.388       .  A
C1575      H1580   1.084       .  S
C1576      C1577   1.409       .  A
C1576      H1581   1.084       .  S
C1577      C1578   1.401       .  A
C1578      H1582   1.082       .  S
C1583      C1584   1.407       .  A
C1583      C1588   1.408       .  A
C1583      H1589   1.082       .  S
C1584      C1585   1.390       .  A
C1585      C1586   1.384       .  A
C1585      H1590   1.084       .  S
C1586      C1587   1.411       .  A
C1586      H1591   1.071       .  S
C1587      C1588   1.403       .  A
C1588      H1592   1.081       .  S
C1593      C1594   1.413       .  A
C1593      C1598   1.413       .  A
C1593      H1599   1.081       .  S
C1594      C1595   1.407       .  A
C1595      H1600   1.068       .  S
C1596      C1597   1.398       .  A
C1596      H1601   1.087       .  S
C1598      H1602   1.082   1_556  S
C1603      C1604   1.409       .  A
C1603      C1608   1.411       .  A
C1603      H1609   1.083       .  S
C1605      H1610   1.084       .  S
C1606      C1607   1.411       .  A
C1607      C1608   1.408       .  A
C1608      H1612   1.083       .  S
C1613      C1614   1.402       .  A
C1614      C1615   1.417       .  A
C1615      C1616   1.425       .  A
C1615      H1620   1.084       .  S
C1616      C1617   1.479       .  A
C1616      H1621   1.078       .  S
C1618      H1622   1.081   1_554  S
C1623      C1628   1.397       .  A
C1623      H1629   1.084       .  S
C1624      C1625   1.401       .  A
C1625      C1626   1.381       .  A
C1625      H1630   1.083       .  S
C1626      C1627   1.397   1_556  A
C1626      H1631   1.082       .  S
C1628      H1632   1.083       .  S
C1633      C1638   1.395       .  A
C1633      H1639   1.083       .  S
C1634      C1635   1.401       .  A
C1635      C1636   1.398       .  A
C1635      H1640   1.083       .  S
C1636      C1637   1.411       .  A
C1636      H1641   1.084       .  S
C1638      H1642   1.083       .  S
C1643      C1644   1.388       .  A
C1643      C1648   1.392       .  A
C1643      H1649   1.084       .  S
C1644      C1645   1.407       .  A
C1645      C1646   1.392       .  A
C1645      H1650   1.081       .  S
C1646      C1647   1.399       .  A
C1646      H1651   1.084       .  S
C1647      C1648   1.412       .  A
C1648      H1652   1.068       .  S
C1653      C1654   1.403       .  A
C1653      C1658   1.405       .  A
C1653      H1659   1.083       .  S
C1654      C1655   1.416       .  A
C1655      C1656   1.406       .  A
C1656      C1657   1.401       .  A
C1657      C1658   1.416       .  A
C1658      H1662   1.083       .  S
C1663      C1664   1.393       .  A
C1663      C1668   1.402       .  A
C1663      H1669   1.083       .  S
C1664      C1665   1.421       .  A
C1665      C1666   1.400       .  A
C1665      H1670   1.083       .  S
C1666      C1667   1.393       .  A
C1666      H1671   1.083       .  S
C1667      C1668   1.421       .  A
C1668      H1672   1.080       .  S
C1673      C1674   1.421       .  A
C1673      C1678   1.402       .  A
C1673      H1679   1.082       .  S
C1674      C1675   1.386       .  A
C1675      C1676   1.390       .  A
C1675      H1680   1.084       .  S
C1676      C1677   1.416       .  A
C1676      H1681   1.068       .  S
C1677      C1678   1.396       .  A
C1678      H1682   1.083       .  S
C1683      C1684   1.416       .  A
C1683      C1688   1.419       .  A
C1683      H1689   1.083   1_455  S
C1684      C1685   1.433       .  A
C1685      C1686   1.462       .  A
C1685      H1690   1.082       .  S
C1686      C1687   1.432       .  A
C1686      H1691   1.080       .  S
C1687      C1688   1.422       .  A
C1688      H1692   1.083   1_455  S
C1693      C1694   1.553   1_455  A
C1693      C1698   1.424       .  A
C1693      H1699   1.081       .  S
C1694      C3014   1.843       .  S
C1694      C3407   1.570       .  A
C1695      C3406   1.570       .  A
C1695      C1696   1.432       .  A
C1695      H1700   1.083       .  S
C1696      C3409   1.426       .  A
C1696      H1701   1.071       .  S
C1697      C3408   1.426       .  A
C1697      C1698   1.407   1_655  A
C1698      H1702   1.071       .  S
C1703      C3416   1.409       .  A
C1703      C1708   1.377       .  A
C1703      H1709   1.073   1_655  S
C1704      C3415   1.409       .  A
C1704      C1705   1.398       .  A
C1705      C1706   1.397       .  A
C1705      H1710   1.083       .  S
C1706      C1707   1.414       .  A
C1706      H1711   1.084       .  S
C1707      C3420   1.387       .  A
C1708      C3419   1.387       .  A
C1708      H1712   1.084   1_655  S
O1713      C1740   1.256       .  A
O1713     Mn1739   1.998       .  S
C1714      C2132   1.444       .  S
O1715     Mn2593   2.066   1_545  S
O1715     Mn1739   2.098       .  S
O1716      C1726   1.276       .  A
O1716     Mn1750   2.179       .  S
O1717      C2596   1.287       .  A
O1718      C1745   1.273       .  A
O1718     Mn1737   2.292       .  S
O1719     Mn2178   1.960       .  S
O1719     Mn1739   1.977       .  S
O1719      C1735   1.213       .  S
C1720      O1723   1.229       .  A
C1720      C2042   1.499       .  S
C1720      O1746   1.265       .  S
O1721     Mn1741   1.945       .  S
O1721     Mn2578   2.005       .  S
O1721     Mn2183   1.986   1_554  S
Mn1722     O1751   2.011       .  S
Mn1722     O2155   2.057   1_544  S
Mn1722     O2182   2.107       .  S
Mn1722     O2577   2.005   1_545  S
O1723     Mn2165   1.937   1_554  S
O1724      C1726   1.251       .  A
O1724     Mn1731   2.032   1_545  S
C1725      O1751   1.251   1_565  A
C1725      C2092   1.485       .  S
C1725      O2594   1.251       .  S
C1726      C2082   1.500       .  S
O1727      C2608   1.258       .  A
O1727     Mn2150   2.057   1_565  S
O1728     Mn1731   2.185   1_545  S
O1728     Mn1750   2.044       .  S
O1728     Mn3021   2.170   1_544  S
O1729     Mn1733   1.974       .  S
O1729     Mn1755   2.061       .  S
O1729      C1752   1.240       .  S
C1730      O1756   1.152       .  A
C1730      O2160   1.377       .  A
Mn1731     O1744   2.171   1_565  S
Mn1731     O2602   2.023       .  S
O1732      C2158   1.377       .  A
O1732     Mn1755   2.443       .  S
Mn1733     O2605   2.153       .  S
Mn1733     O1743   2.024       .  S
O1734      C1736   1.263       .  A
C1735      O1753   1.261       .  A
C1735      C2052   1.443       .  S
C1736      O1749   1.287       .  A
C1736      C2102   1.476       .  S
Mn1737     O2151   1.937       .  S
Mn1737     O2609   2.115       .  S
Mn1737     O2571   2.066       .  S
Mn1737     O3012   2.170       .  S
O1738     Mn1741   1.977       .  S
O1738      C2581   1.251       .  S
Mn1739     O1757   1.912       .  S
C1740      O2573   1.287       .  A
C1740      C2072   1.452       .  S
Mn1741     O1748   2.164       .  S
Mn1741     O1756   1.814       .  S
C1742      O1748   1.262       .  A
C1742      O2186   1.231   1_554  A
C1742      C2025   1.451       .  S
O1743     Mn1755   2.006       .  S
C1745      C2112   1.579       .  S
O1746     Mn2587   2.023       .  S
O1747     Mn1750   2.032       .  S
O1749     Mn2589   2.153   1_545  S
Mn1750     O2147   1.960   1_554  S
Mn1750     O2185   1.939       .  S
C1752      O2583   1.258       .  A
C1752      C2062   1.479       .  S
O1753     Mn2593   2.115   1_545  S
O1754      C1759   1.246       .  A
O1754     Mn2150   2.107       .  S
Mn1755     O1758   1.935       .  S
Mn1755     O2149   1.986       .  S
O1757     Mn2178   1.939       .  S
O1758      C2170   1.231       .  A
C1759      C2460   1.487       .  S
O1760      C1787   1.270       .  A
O1760     Mn1786   2.062       .  S
C1761      C2135   1.447       .  S
O1762     Mn1769   2.120       .  S
O1762     Mn1780   2.112       .  S
O1763      C1773   1.280       .  A
O1763     Mn1797   2.190       .  S
O1764      C1787   1.287       .  A
O1765      C1792   1.293       .  A
O1765     Mn1784   2.313       .  S
O1766     Mn1797   1.973       .  S
O1766     Mn1786   2.016       .  S
O1766      C1782   1.241       .  S
C1767      O1770   1.240       .  A
C1767      C1972   1.514       .  S
C1767      O1793   1.258       .  S
O1768     Mn1788   2.091       .  S
O1768     Mn1769   2.044       .  S
O1768     Mn1802   2.107       .  S
Mn1769     O1798   2.013       .  S
Mn1769     O1774   2.100       .  S
Mn1769     O1801   1.986       .  S
O1770     Mn1784   2.023       .  S
O1771      C1773   1.249       .  A
O1771     Mn1778   2.014       .  S
C1772      O1798   1.250       .  A
C1772      C1982   1.487       .  S
C1772      O1785   1.247       .  S
C1773      C1992   1.475       .  S
O1774      C1799   1.250       .  A
O1775     Mn1778   2.145       .  S
O1775     Mn1797   2.099       .  S
O1775     Mn1784   2.155       .  S
O1776     Mn1780   1.933       .  S
O1776     Mn1802   2.023       .  S
O1776      C1799   1.220       .  S
C1777      C2125   1.590       .  S
Mn1778     O1791   2.139       .  S
Mn1778     O1793   2.023       .  S
O1779     Mn1802   2.330       .  S
Mn1780     O1796   2.160       .  S
Mn1780     O1790   2.027       .  S
O1781      C1783   1.255       .  A
C1782      O1800   1.276       .  A
C1782      C1962   1.504       .  S
C1783      O1796   1.281       .  A
C1783      C2105   1.483       .  S
Mn1784     O1800   2.131       .  S
O1785     Mn1788   1.978       .  S
C1787      C2002   1.458       .  S
Mn1788     O1795   2.128       .  S
Mn1788     O1803   2.023   1_655  S
C1789      O1795   1.263       .  A
C1789      O1805   1.247       .  A
C1789      C1952   1.427       .  S
O1790     Mn1802   2.020       .  S
C1792      C2115   1.583       .  S
O1794     Mn1797   2.045       .  S
C1799      C2012   1.465       .  S
O1801      C1806   1.230       .  A
Mn1802     O1805   2.012       .  S
O1804      C1806   1.251       .  S
C1806      C1942   1.519       .  S
O1807      C1834   1.280       .  A
O1807     Mn1833   2.121       .  S
C1808      O1841   1.245       .  A
C1808      O1838   1.285   1_565  A
C1808      C2095   1.488       .  S
O1809     Mn1816   2.108   1_545  S
O1809     Mn1827   2.110       .  S
O1809     Mn1831   2.086       .  S
O1809     Mn1833   2.101       .  S
O1810      C1820   1.284       .  A
O1810     Mn1844   2.188       .  S
O1811      C1834   1.275       .  A
O1811     Mn1827   2.067       .  S
O1812      C1839   1.274       .  A
O1812     Mn1831   2.153       .  S
O1813     Mn1844   1.937       .  S
O1813     Mn1833   1.974       .  S
O1813      C1829   1.208       .  S
C1814      O1817   1.240       .  A
C1814      C1965   1.526       .  S
C1814      O1840   1.256       .  S
O1815     Mn1835   2.109       .  S
O1815     Mn1816   2.047   1_545  S
O1815     Mn2705   2.144   1_545  S
O1815     Mn1831   2.227       .  S
Mn1816     O2701   2.022       .  S
Mn1816     O2677   2.181       .  S
Mn1816     O2704   1.981       .  S
Mn1816     O1822   2.184   1_565  S
O1817     Mn1831   2.044       .  S
O1818      C1820   1.254       .  A
O1818     Mn1825   2.032       .  S
C1819      O1845   1.255       .  A
C1819      C1912   1.446       .  S
C1819      O2688   1.240       .  S
C1820      C1902   1.476       .  S
O1821      C1846   1.265       .  A
O1821     Mn2672   2.181       .  S
O1822     Mn1825   2.131       .  S
O1822     Mn1844   2.100       .  S
O1822     Mn1831   2.124       .  S
O1823     Mn2683   1.972       .  S
O1823     Mn1849   2.037       .  S
O1823      C1846   1.216       .  S
C1824      O1850   1.224       .  A
C1824      O1826   1.271       .  A
C1824      C2085   1.488       .  S
Mn1825     O1838   2.198       .  S
Mn1825     O1840   2.045       .  S
Mn1825     O1832   1.979   1_545  S
O1826     Mn2705   2.210   1_545  S
Mn1827     O2699   2.130   1_545  S
Mn1827     O2679   1.972   1_545  S
Mn1827     O1837   1.973       .  S
O1828      C1830   1.255       .  A
O1828     Mn1833   2.052   1_565  S
C1829      O1847   1.278       .  A
C1829      C1945   1.517       .  S
C1830      O2699   1.275       .  A
C1830      C2921   1.470       .  S
Mn1831     O1847   2.207       .  S
O1832     Mn1835   1.972   1_565  S
O1832      C2675   1.240       .  S
Mn1833     O1851   1.947   1_545  S
C1834      C1932   1.468       .  S
Mn1835     O2698   2.129   1_545  S
Mn1835     O1850   2.002       .  S
Mn1835     O1840   1.954       .  S
C1836      O1842   1.276       .  A
C1836      O1852   1.283       .  A
C1836      C1975   1.497       .  S
O1837     Mn2705   1.969   1_545  S
O1837      C1839   1.208       .  S
C1839      C2075   1.458       .  S
O1841     Mn1844   2.027   1_565  S
O1842     Mn2691   2.129       .  S
O1843      C2686   1.275       .  A
O1843     Mn2683   2.130       .  S
Mn1844     O1851   1.957   1_545  S
O1845     Mn2672   2.022       .  S
C1846      C1925   1.534       .  S
O1848      C2709   1.229       .  A
O1848     Mn2672   1.981       .  S
Mn1849     O2682   2.210       .  S
Mn1849     O1852   2.100       .  S
Mn1849     O2671   2.144       .  S
Mn1849     O2693   1.969       .  S
O1851      C1853   1.222       .  S
C1853      O2704   1.229       .  A
C1853      C2811   1.437       .  S
O1854      C1881   1.273       .  A
O1854     Mn1880   2.129       .  S
C1855      O1888   1.253       .  A
C1855      O1885   1.276       .  A
C1855      C2055   1.457       .  S
O1856     Mn2291   2.150       .  S
O1856     Mn2302   2.053       .  S
O1856     Mn1878   2.139       .  S
O1856     Mn1880   2.092       .  S
O1857      C1867   1.285       .  A
O1857     Mn1891   2.179       .  S
O1858      C1881   1.257       .  A
O1858     Mn2302   2.050       .  S
O1859      C1886   1.253       .  A
O1859     Mn1878   2.218       .  S
O1860     Mn1891   1.892       .  S
O1860     Mn1880   1.893       .  S
O1860      C1876   1.199       .  S
C1861      O1864   1.251       .  A
C1861      C1922   1.548       .  S
C1861      O1887   1.271       .  S
O1862     Mn1882   2.127       .  S
O1862     Mn1863   2.076       .  S
O1862     Mn1896   2.038       .  S
O1862     Mn2306   2.231   1_554  S
Mn1863     O1892   2.081       .  S
Mn1863     O1868   2.137       .  S
Mn1863     O1895   2.038       .  S
Mn1863     O2284   2.150       .  S
Mn1863     O2297   2.135   1_554  S
O1864     Mn1878   2.018       .  S
O1865      C1867   1.261       .  A
O1865     Mn1872   2.019       .  S
C1866      O1892   1.260       .  A
C1866      C1995   1.476       .  S
C1866      O1879   1.227       .  S
C1867      C2005   1.469       .  S
O1868      C1893   1.264       .  A
O1869     Mn2291   2.135       .  S
O1869     Mn1872   2.114       .  S
O1869     Mn1891   2.081       .  S
O1869     Mn1878   2.120       .  S
O1870     Mn1874   1.983       .  S
O1870     Mn1896   2.041       .  S
O1870      C1893   1.213       .  S
C1871      O2325   1.176       .  A
C1871      O1873   1.296       .  A
C1871      C2473   1.744       .  S
Mn1872     O1885   2.121       .  S
Mn1872     O1887   2.073       .  S
Mn1872     O2307   1.911       .  S
O1873     Mn2324   2.191       .  S
Mn1874     O2286   2.050   1_554  S
Mn1874     O1890   2.174       .  S
Mn1874     O2284   2.053       .  S
Mn1874     O2312   1.928   1_554  S
O1875      C2305   1.250       .  A
O1875     Mn1880   2.033       .  S
C1876      O1894   1.270       .  A
C1876      C1935   1.489       .  S
C1877      O2303   1.250       .  A
C1877      O1890   1.283       .  A
C1877      C2035   1.485       .  S
Mn1878     O1894   2.215       .  S
Mn1878     O2290   2.231       .  S
O1879     Mn2300   1.911   1_554  S
O1879     Mn1882   1.947       .  S
Mn1880     O1898   1.966       .  S
C1881      C2015   1.489       .  S
Mn1882     O1889   2.117       .  S
Mn1882     O1897   1.989       .  S
Mn1882     O2315   2.039   1_554  S
C1883      O1889   1.282       .  A
C1883      O1899   1.266       .  A
C1883      C1915   1.448       .  S
O1884     Mn2302   1.928       .  S
O1884     Mn2324   1.865       .  S
O1884      C1886   1.180       .  S
C1886      C2022   1.466       .  S
O1887     Mn2310   2.039       .  S
O1888     Mn1891   2.035       .  S
Mn1891     O1898   2.033       .  S
C1893      C1985   1.485       .  S
O1895      C1900   1.239       .  A
Mn1896     O2301   2.191   1_554  S
Mn1896     O1899   2.019       .  S
Mn1896     O2312   1.865   1_554  S
O1897      C2299   1.176   1_554  A
O1898      C2328   1.230       .  S
C1900      C1905   1.497       .  S
C1900      O2326   1.230       .  S
C1901      C1902   1.414       .  A
C1901      C1906   1.411       .  A
C1901      H1907   1.083       .  S
C1902      C1903   1.399       .  A
C1903      C1904   1.399       .  A
C1903      H1908   1.084       .  S
C1904      C1905   1.413       .  A
C1904      H1909   1.083       .  S
C1905      C1906   1.404       .  A
C1906      H1910   1.083       .  S
C1911      C1912   1.386       .  A
C1911      C1916   1.375       .  A
C1911      H1917   1.083       .  S
C1912      C1913   1.412       .  A
C1913      C1914   1.395       .  A
C1913      H1918   1.082       .  S
C1914      C1915   1.392       .  A
C1914      H1919   1.083       .  S
C1915      C1916   1.408       .  A
C1916      H1920   1.084       .  S
C1921      C1922   1.428       .  A
C1921      C1926   1.416       .  A
C1921      H1927   1.083       .  S
C1922      C1923   1.413       .  A
C1923      C1924   1.428       .  A
C1923      H1928   1.071       .  S
C1924      C1925   1.421       .  A
C1924      H1929   1.083       .  S
C1925      C1926   1.404       .  A
C1926      H1930   1.083       .  S
C1931      C1932   1.385       .  A
C1931      C1936   1.372       .  A
C1931      H1937   1.085       .  S
C1932      C1933   1.415       .  A
C1933      C1934   1.418       .  A
C1933      H1938   1.080       .  S
C1934      C1935   1.405       .  A
C1934      H1939   1.081       .  S
C1935      C1936   1.416       .  A
C1936      H1940   1.081       .  S
C1941      C1942   1.401       .  A
C1941      C1946   1.418       .  A
C1941      H1947   1.083       .  S
C1942      C1943   1.428       .  A
C1943      C1944   1.408       .  A
C1943      H1948   1.082       .  S
C1944      C1945   1.395       .  A
C1944      H1949   1.083       .  S
C1945      C1946   1.429       .  A
C1946      H1950   1.083       .  S
C1951      C1952   1.392       .  A
C1951      C1956   1.383       .  A
C1951      H1957   1.084       .  S
C1952      C1953   1.405       .  A
C1953      C1954   1.373       .  A
C1953      H1958   1.079       .  S
C1954      C1955   1.388       .  A
C1954      H1959   1.084       .  S
C1955      C2709   1.437       .  S
C1955      C1956   1.409       .  A
C1956      H1960   1.084       .  S
C1961      C1962   1.417       .  A
C1961      C1966   1.434       .  A
C1961      H1967   1.073       .  S
C1962      C1963   1.383       .  A
C1963      C1964   1.396       .  A
C1963      H1968   1.083       .  S
C1964      C1965   1.404       .  A
C1964      H1969   1.048       .  S
C1965      C1966   1.407       .  A
C1966      H1970   1.081       .  S
C1971      C1972   1.406       .  A
C1971      C1976   1.426       .  A
C1971      H1977   1.080       .  S
C1972      C1973   1.410       .  A
C1973      C1974   1.381       .  A
C1973      H1978   1.063       .  S
C1974      C1975   1.388       .  A
C1974      H1979   1.081       .  S
C1975      C1976   1.423       .  A
C1976      H1980   1.083       .  S
C1981      C1982   1.395       .  A
C1981      C1986   1.400       .  A
C1981      H1987   1.081       .  S
C1982      C1983   1.419       .  A
C1983      C1984   1.398       .  A
C1983      H1988   1.083       .  S
C1984      C1985   1.396       .  A
C1984      H1989   1.083       .  S
C1985      C1986   1.416       .  A
C1986      H1990   1.079       .  S
C1991      C1992   1.409       .  A
C1991      C1996   1.394       .  A
C1991      H1997   1.084       .  S
C1992      C1993   1.397       .  A
C1993      C1994   1.403       .  A
C1993      H1998   1.076       .  S
C1994      C1995   1.408       .  A
C1994      H1999   1.083       .  S
C1995      C1996   1.400       .  A
C1996      H2000   1.083       .  S
C2001      C2002   1.407       .  A
C2001      C2006   1.400       .  A
C2001      H2007   1.084       .  S
C2002      C2003   1.395       .  A
C2003      C2004   1.388       .  A
C2003      H2008   1.084       .  S
C2004      C2005   1.409       .  A
C2004      H2009   1.084       .  S
C2005      C2006   1.401       .  A
C2006      H2010   1.082       .  S
C2011      C2012   1.407       .  A
C2011      C2016   1.408       .  A
C2011      H2017   1.082       .  S
C2012      C2013   1.390       .  A
C2013      C2014   1.384       .  A
C2013      H2018   1.084       .  S
C2014      C2015   1.411       .  A
C2014      H2019   1.071       .  S
C2015      C2016   1.403       .  A
C2016      H2020   1.081       .  S
C2021      C2022   1.413       .  A
C2021      C2026   1.413       .  A
C2021      H2027   1.081       .  S
C2022      C2023   1.407       .  A
C2023      C2452   1.389       .  A
C2023      H2028   1.068       .  S
C2024      C2451   1.389   1_554  A
C2024      C2025   1.398       .  A
C2024      H2029   1.087       .  S
C2025      C2454   1.410   1_554  A
C2026      C2453   1.410       .  A
C2026      H2030   1.082       .  S
C2031      C2032   1.409       .  A
C2031      C2036   1.411       .  A
C2031      H2037   1.083   1_554  S
C2032      C2187   1.487       .  S
C2032      C2461   1.401       .  A
C2033      C2460   1.401       .  A
C2033      C2462   1.396       .  A
C2033      H2038   1.084       .  S
C2034      C2461   1.396       .  A
C2034      C2035   1.411       .  A
C2034      H2467   1.084       .  S
C2035      C2036   1.408       .  A
C2036      H2040   1.083   1_554  S
H2039      C2462   1.084       .  S
C2041      C2042   1.402       .  A
C2041      C2474   1.407       .  A
C2041      H2475   1.084       .  S
C2042      C2043   1.417       .  A
C2043      C2044   1.425       .  A
C2043      H2048   1.084       .  S
C2044      C2045   1.479       .  A
C2044      H2049   1.078       .  S
C2045      C2299   1.744   1_554  S
C2045      C2474   1.560       .  A
C2046      C2469   1.407       .  A
C2046      C2473   1.560       .  A
C2046      H2050   1.081       .  S
H2047      C2469   1.084       .  S
C2051      C2480   1.400   1_554  A
C2051      C2056   1.397       .  A
C2051      H2057   1.084       .  S
C2052      C2479   1.400       .  A
C2052      C2053   1.401       .  A
C2053      C2054   1.381       .  A
C2053      H2058   1.083       .  S
C2054      C2055   1.397       .  A
C2054      H2059   1.082       .  S
C2055      C2484   1.407       .  A
C2056      C2483   1.407       .  A
C2056      H2060   1.083       .  S
C2061      C2918   1.410       .  A
C2061      C2066   1.395       .  A
C2061      H2067   1.083   1_565  S
C2062      C2917   1.410       .  A
C2062      C2063   1.401       .  A
C2063      C2064   1.398       .  A
C2063      H2068   1.083       .  S
C2064      C2065   1.411       .  A
C2064      H2069   1.084       .  S
C2065      C2686   1.470       .  S
C2065      C2922   1.399       .  A
C2066      C2921   1.399       .  A
C2066      H2070   1.083       .  S
C2071      C2072   1.388       .  A
C2071      C2076   1.392       .  A
C2071      H2077   1.084       .  S
C2072      C2073   1.407       .  A
C2073      C2074   1.392       .  A
C2073      H2078   1.081       .  S
C2074      C2075   1.399       .  A
C2074      H2079   1.084       .  S
C2075      C2076   1.412       .  A
C2076      H2080   1.068       .  S
C2081      C2082   1.403       .  A
C2081      C2086   1.405       .  A
C2081      H2087   1.083       .  S
C2082      C2083   1.416       .  A
C2083      C2084   1.406       .  A
C2083      H2944   1.083   1_545  S
C2084      C2085   1.401       .  A
C2084      H2945   1.082   1_545  S
C2085      C2086   1.416       .  A
C2086      H2090   1.083       .  S
H2088      C2939   1.083       .  S
H2089      C2940   1.082       .  S
C2091      C2092   1.393       .  A
C2091      C2096   1.402       .  A
C2091      H2097   1.083       .  S
C2092      C2093   1.421       .  A
C2093      C2094   1.400       .  A
C2093      H2098   1.083       .  S
C2094      C2095   1.393       .  A
C2094      H2099   1.083       .  S
C2095      C2096   1.421       .  A
C2096      H2100   1.080       .  S
C2101      C2102   1.421       .  A
C2101      C2106   1.402       .  A
C2101      H2107   1.082       .  S
C2102      C2103   1.386       .  A
C2103      C2104   1.390       .  A
C2103      H2108   1.084       .  S
C2104      C2105   1.416       .  A
C2104      H2109   1.068       .  S
C2105      C2106   1.396       .  A
C2106      H2110   1.083       .  S
C2111      C2112   1.416       .  A
C2111      C2116   1.419       .  A
C2111      H2117   1.083       .  S
C2112      C2113   1.433       .  A
C2113      C2114   1.462       .  A
C2113      H2118   1.082       .  S
C2114      C2115   1.432       .  A
C2114      H2119   1.080       .  S
C2115      C2116   1.422       .  A
C2116      H2120   1.083       .  S
C2121      C2122   1.553       .  A
C2121      C2126   1.424       .  A
C2121      H2127   1.081       .  S
C2123      C2124   1.432       .  A
C2123      H2128   1.083       .  S
C2124      H2129   1.071       .  S
C2125      C2126   1.407       .  A
C2126      H2130   1.071       .  S
C2131      C2136   1.377       .  A
C2131      H2137   1.073       .  S
C2132      C2133   1.398       .  A
C2133      C2134   1.397       .  A
C2133      H2138   1.083       .  S
C2134      C2135   1.414       .  A
C2134      H2139   1.084       .  S
C2136      H2140   1.084       .  S
O2141      C2168   1.256       .  A
O2141     Mn2167   1.998       .  S
C2142      C2560   1.444       .  S
O2143     Mn3021   2.066   1_545  S
O2143     Mn2167   2.098       .  S
O2144      C2154   1.276       .  A
O2144     Mn2178   2.179       .  S
O2145      C3024   1.287       .  A
O2146      C2173   1.273       .  A
O2146     Mn2165   2.292       .  S
O2147     Mn2167   1.977       .  S
O2147      C2163   1.213       .  S
C2148      O2151   1.229       .  A
C2148      C2470   1.499       .  S
C2148      O2174   1.265       .  S
O2149     Mn2169   1.945       .  S
O2149     Mn3006   2.005       .  S
Mn2150     O2179   2.011       .  S
Mn2150     O3005   2.005   1_545  S
O2152      C2154   1.251       .  A
O2152     Mn2159   2.032   1_545  S
C2153      O2179   1.251   1_565  A
C2153      C2520   1.485       .  S
C2153      O3022   1.251       .  S
C2154      C2510   1.500       .  S
O2155      C3036   1.258       .  A
O2156     Mn2159   2.185   1_545  S
O2156     Mn2178   2.044       .  S
O2156     Mn2593   2.170   1_545  S
O2157     Mn2161   1.974       .  S
O2157     Mn2183   2.061       .  S
O2157      C2180   1.240       .  S
C2158      O2184   1.152       .  A
Mn2159     O2172   2.171   1_565  S
Mn2159     O3030   2.023       .  S
O2160     Mn2183   2.443   1_554  S
Mn2161     O3033   2.153       .  S
Mn2161     O2171   2.024       .  S
O2162      C2164   1.263       .  A
C2163      O2181   1.261       .  A
C2163      C2480   1.443       .  S
C2164      O2177   1.287       .  A
C2164      C2530   1.476       .  S
Mn2165     O3037   2.115       .  S
Mn2165     O2999   2.066       .  S
Mn2165     O2584   2.170   1_556  S
O2166     Mn2169   1.977       .  S
O2166      C3009   1.251       .  S
Mn2167     O2185   1.912   1_556  S
C2168      O3001   1.287       .  A
C2168      C2500   1.452       .  S
Mn2169     O2176   2.163       .  S
Mn2169     O2184   1.814       .  S
C2170      O2176   1.262       .  A
C2170      C2453   1.451       .  S
O2171     Mn2183   2.006       .  S
C2173      C2540   1.579       .  S
O2174     Mn3015   2.023       .  S
O2175     Mn2178   2.032       .  S
O2177     Mn3017   2.153   1_545  S
C2180      O3011   1.258       .  A
C2180      C2490   1.479       .  S
O2181     Mn3021   2.115   1_545  S
O2182      C2187   1.246       .  A
Mn2183     O2186   1.935       .  S
O2188      C2215   1.270       .  A
O2188     Mn2214   2.062       .  S
C2189      C2563   1.447       .  S
O2190     Mn2197   2.120       .  S
O2190     Mn2208   2.112       .  S
O2191      C2201   1.280       .  A
O2191     Mn2225   2.190       .  S
O2192      C2215   1.287       .  A
O2193      C2220   1.293       .  A
O2193     Mn2212   2.313       .  S
O2194     Mn2225   1.973       .  S
O2194     Mn2214   2.016       .  S
O2194      C2210   1.241       .  S
C2195      O2198   1.240       .  A
C2195      C2400   1.514       .  S
C2195      O2221   1.258       .  S
O2196     Mn2216   2.091       .  S
O2196     Mn2197   2.044       .  S
O2196     Mn2230   2.107       .  S
Mn2197     O2226   2.013       .  S
Mn2197     O2202   2.100       .  S
Mn2197     O2229   1.986       .  S
O2198     Mn2212   2.023       .  S
O2199      C2201   1.249       .  A
O2199     Mn2206   2.014       .  S
C2200      O2226   1.250       .  A
C2200      C2410   1.487       .  S
C2200      O2213   1.247       .  S
C2201      C2420   1.475       .  S
O2202      C2227   1.250       .  A
O2203     Mn2206   2.145       .  S
O2203     Mn2225   2.099       .  S
O2203     Mn2212   2.155       .  S
O2204     Mn2208   1.933       .  S
O2204     Mn2230   2.023       .  S
O2204      C2227   1.220       .  S
C2205      C2553   1.590       .  S
Mn2206     O2219   2.139       .  S
Mn2206     O2221   2.023       .  S
O2207     Mn2230   2.330       .  S
Mn2208     O2224   2.160       .  S
Mn2208     O2218   2.027       .  S
O2209      C2211   1.255       .  A
C2210      O2228   1.276       .  A
C2210      C2390   1.504       .  S
C2211      O2224   1.281       .  A
C2211      C2533   1.483       .  S
Mn2212     O2228   2.131       .  S
O2213     Mn2216   1.978       .  S
C2215      C2430   1.458       .  S
Mn2216     O2223   2.128       .  S
Mn2216     O2231   2.023   1_655  S
C2217      O2223   1.263       .  A
C2217      O2233   1.247       .  A
C2217      C2380   1.427       .  S
O2218     Mn2230   2.020       .  S
C2220      C2543   1.583       .  S
O2222     Mn2225   2.045       .  S
C2227      C2440   1.465       .  S
O2229      C2234   1.230       .  A
Mn2230     O2233   2.012       .  S
O2232      C2234   1.251       .  S
C2234      C2370   1.519       .  S
O2235      C2262   1.280       .  A
O2235     Mn2261   2.121       .  S
C2236      O2269   1.245       .  A
C2236      O2266   1.285   1_565  A
C2236      C2523   1.488       .  S
O2237     Mn2244   2.108   1_545  S
O2237     Mn2255   2.110       .  S
O2237     Mn2259   2.086       .  S
O2237     Mn2261   2.101       .  S
O2238      C2248   1.284       .  A
O2238     Mn2272   2.188       .  S
O2239      C2262   1.275       .  A
O2239     Mn2255   2.067       .  S
O2240      C2267   1.274       .  A
O2240     Mn2259   2.153       .  S
O2241     Mn2272   1.937       .  S
O2241     Mn2261   1.974       .  S
O2241      C2257   1.208       .  S
C2242      O2245   1.240       .  A
C2242      C2393   1.526       .  S
C2242      O2268   1.256       .  S
O2243     Mn2263   2.109       .  S
O2243     Mn2244   2.047   1_545  S
O2243     Mn3133   2.144   1_545  S
O2243     Mn2259   2.227       .  S
Mn2244     O3129   2.022       .  S
Mn2244     O3105   2.181       .  S
Mn2244     O3132   1.981       .  S
Mn2244     O2250   2.184   1_565  S
O2245     Mn2259   2.044       .  S
O2246      C2248   1.254       .  A
O2246     Mn2253   2.032       .  S
C2247      O2273   1.255       .  A
C2247      C2340   1.446       .  S
C2247      O3116   1.240       .  S
C2248      C2330   1.476       .  S
O2249      C2274   1.265       .  A
O2249     Mn3100   2.181       .  S
O2250     Mn2253   2.131       .  S
O2250     Mn2272   2.100       .  S
O2250     Mn2259   2.124       .  S
O2251     Mn3111   1.972       .  S
O2251     Mn2277   2.037       .  S
O2251      C2274   1.216       .  S
C2252      O2278   1.224       .  A
C2252      O2254   1.271       .  A
C2252      C2513   1.488       .  S
Mn2253     O2266   2.198       .  S
Mn2253     O2268   2.045       .  S
Mn2253     O2260   1.979   1_545  S
O2254     Mn3133   2.210   1_545  S
Mn2255     O3127   2.130   1_545  S
Mn2255     O3107   1.972   1_545  S
Mn2255     O2265   1.973       .  S
O2256      C2258   1.255       .  A
O2256     Mn2261   2.052   1_565  S
C2257      O2275   1.278       .  A
C2257      C2373   1.517       .  S
C2258      O3127   1.275       .  A
C2258      C3349   1.470       .  S
Mn2259     O2275   2.207       .  S
O2260     Mn2263   1.972   1_565  S
O2260      C3103   1.240       .  S
Mn2261     O2279   1.947   1_545  S
C2262      C2360   1.468       .  S
Mn2263     O3126   2.129   1_545  S
Mn2263     O2278   2.002       .  S
Mn2263     O2268   1.954       .  S
C2264      O2270   1.276       .  A
C2264      O2280   1.283       .  A
C2264      C2403   1.497       .  S
O2265     Mn3133   1.969   1_545  S
O2265      C2267   1.208       .  S
C2267      C2503   1.458       .  S
O2269     Mn2272   2.027   1_565  S
O2270     Mn3119   2.129       .  S
O2271      C3114   1.275       .  A
O2271     Mn3111   2.130       .  S
Mn2272     O2279   1.957   1_545  S
O2273     Mn3100   2.022       .  S
C2274      C2353   1.534       .  S
O2276      C3137   1.229       .  A
O2276     Mn3100   1.981       .  S
Mn2277     O3110   2.210       .  S
Mn2277     O2280   2.100       .  S
Mn2277     O3099   2.144       .  S
Mn2277     O3121   1.969       .  S
O2279      C2281   1.222       .  S
C2281      O3132   1.229       .  A
C2281      C3239   1.437       .  S
O2282      C2309   1.273       .  A
O2282     Mn2308   2.129       .  S
C2283      O2316   1.253       .  A
C2283      O2313   1.276   1_554  A
C2283      C2483   1.457       .  S
O2284     Mn2306   2.139   1_554  S
O2284     Mn2308   2.092   1_554  S
O2285      C2295   1.285       .  A
O2285     Mn2319   2.179       .  S
O2286      C2309   1.257       .  A
O2287      C2314   1.253       .  A
O2287     Mn2306   2.218       .  S
O2288     Mn2319   1.892       .  S
O2288     Mn2308   1.893       .  S
O2288      C2304   1.199       .  S
C2289      O2292   1.251       .  A
C2289      C2350   1.548       .  S
C2289      O2315   1.271       .  S
O2290     Mn2310   2.127       .  S
O2290     Mn2291   2.076       .  S
O2290     Mn2324   2.038       .  S
Mn2291     O2320   2.081       .  S
Mn2291     O2296   2.137       .  S
Mn2291     O2323   2.038       .  S
O2292     Mn2306   2.018       .  S
O2293      C2295   1.261       .  A
O2293     Mn2300   2.019       .  S
C2294      O2320   1.260       .  A
C2294      C2423   1.476       .  S
C2294      O2307   1.227       .  S
C2295      C2433   1.469       .  S
O2296      C2321   1.264       .  A
O2297     Mn2300   2.114       .  S
O2297     Mn2319   2.081       .  S
O2297     Mn2306   2.120       .  S
O2298     Mn2302   1.983       .  S
O2298     Mn2324   2.041       .  S
O2298      C2321   1.213       .  S
C2299      O2301   1.296       .  A
Mn2300     O2313   2.121       .  S
Mn2300     O2315   2.073       .  S
Mn2302     O2318   2.174       .  S
O2303     Mn2308   2.033   1_554  S
C2304      O2322   1.270       .  A
C2304      C2363   1.489       .  S
C2305      O2318   1.283       .  A
C2305      C2463   1.485       .  S
Mn2306     O2322   2.215       .  S
O2307     Mn2310   1.947       .  S
Mn2308     O2326   1.966   1_556  S
C2309      C2443   1.489       .  S
Mn2310     O2317   2.117       .  S
Mn2310     O2325   1.989       .  S
C2311      O2317   1.282       .  A
C2311      O2327   1.266       .  A
C2311      C2343   1.448       .  S
O2312      C2314   1.180       .  S
C2314      C2450   1.466       .  S
O2316     Mn2319   2.035   1_554  S
Mn2319     O2326   2.033   1_556  S
C2321      C2413   1.485       .  S
O2323      C2328   1.239       .  A
Mn2324     O2327   2.019       .  S
C2328      C2333   1.497       .  S
C2329      C2330   1.414       .  A
C2329      C2334   1.411       .  A
C2329      H2335   1.083       .  S
C2330      C2331   1.399       .  A
C2331      C2332   1.399       .  A
C2331      H2336   1.084       .  S
C2332      C2333   1.413       .  A
C2332      H2337   1.083       .  S
C2333      C2334   1.404       .  A
C2334      H2338   1.083       .  S
C2339      C2340   1.386       .  A
C2339      C2344   1.375       .  A
C2339      H2345   1.083       .  S
C2340      C2341   1.412       .  A
C2341      C2342   1.395       .  A
C2341      H2346   1.082       .  S
C2342      C2343   1.392       .  A
C2342      H2347   1.083       .  S
C2343      C2344   1.408       .  A
C2344      H2348   1.084       .  S
C2349      C2350   1.428       .  A
C2349      C2354   1.416       .  A
C2349      H2355   1.083       .  S
C2350      C2351   1.413       .  A
C2351      C2352   1.428       .  A
C2351      H2356   1.071       .  S
C2352      C2353   1.421       .  A
C2352      H2357   1.083       .  S
C2353      C2354   1.404       .  A
C2354      H2358   1.083       .  S
C2359      C2360   1.385       .  A
C2359      C2364   1.372       .  A
C2359      H2365   1.085       .  S
C2360      C2361   1.415       .  A
C2361      C2362   1.418       .  A
C2361      H2366   1.080       .  S
C2362      C2363   1.405       .  A
C2362      H2367   1.081       .  S
C2363      C2364   1.416       .  A
C2364      H2368   1.081       .  S
C2369      C2370   1.401       .  A
C2369      C2374   1.418       .  A
C2369      H2375   1.083       .  S
C2370      C2371   1.428       .  A
C2371      C2372   1.408       .  A
C2371      H2376   1.082       .  S
C2372      C2373   1.395       .  A
C2372      H2377   1.083       .  S
C2373      C2374   1.429       .  A
C2374      H2378   1.083       .  S
C2379      C2380   1.392       .  A
C2379      C2384   1.383       .  A
C2379      H2385   1.084       .  S
C2380      C2381   1.405       .  A
C2381      C2382   1.373       .  A
C2381      H2386   1.079       .  S
C2382      C2383   1.388       .  A
C2382      H2387   1.084       .  S
C2383      C3137   1.437       .  S
C2383      C2384   1.409       .  A
C2384      H2388   1.084       .  S
C2389      C2390   1.417       .  A
C2389      C2394   1.434       .  A
C2389      H2395   1.073       .  S
C2390      C2391   1.383       .  A
C2391      C2392   1.396       .  A
C2391      H2396   1.083       .  S
C2392      C2393   1.404       .  A
C2392      H2397   1.048       .  S
C2393      C2394   1.407       .  A
C2394      H2398   1.081       .  S
C2399      C2400   1.406       .  A
C2399      C2404   1.426       .  A
C2399      H2405   1.080       .  S
C2400      C2401   1.410       .  A
C2401      C2402   1.380       .  A
C2401      H2406   1.063       .  S
C2402      C2403   1.388       .  A
C2402      H2407   1.081       .  S
C2403      C2404   1.423       .  A
C2404      H2408   1.083       .  S
C2409      C2410   1.395       .  A
C2409      C2414   1.400       .  A
C2409      H2415   1.081       .  S
C2410      C2411   1.419       .  A
C2411      C2412   1.398       .  A
C2411      H2416   1.083       .  S
C2412      C2413   1.396       .  A
C2412      H2417   1.083       .  S
C2413      C2414   1.416       .  A
C2414      H2418   1.079       .  S
C2419      C2420   1.409       .  A
C2419      C2424   1.394       .  A
C2419      H2425   1.084       .  S
C2420      C2421   1.397       .  A
C2421      C2422   1.403       .  A
C2421      H2426   1.076       .  S
C2422      C2423   1.408       .  A
C2422      H2427   1.083       .  S
C2423      C2424   1.400       .  A
C2424      H2428   1.083       .  S
C2429      C2430   1.407       .  A
C2429      C2434   1.400       .  A
C2429      H2435   1.084       .  S
C2430      C2431   1.395       .  A
C2431      C2432   1.388       .  A
C2431      H2436   1.084       .  S
C2432      C2433   1.409       .  A
C2432      H2437   1.084       .  S
C2433      C2434   1.401       .  A
C2434      H2438   1.082       .  S
C2439      C2440   1.407       .  A
C2439      C2444   1.408       .  A
C2439      H2445   1.082       .  S
C2440      C2441   1.390       .  A
C2441      C2442   1.384       .  A
C2441      H2446   1.084       .  S
C2442      C2443   1.411       .  A
C2442      H2447   1.071       .  S
C2443      C2444   1.403       .  A
C2444      H2448   1.081       .  S
C2449      C2450   1.413       .  A
C2449      C2454   1.413       .  A
C2449      H2455   1.081       .  S
C2450      C2451   1.407       .  A
C2451      H2456   1.068       .  S
C2452      C2453   1.398       .  A
C2452      H2457   1.087       .  S
C2454      H2458   1.082   1_556  S
C2459      C2460   1.409       .  A
C2459      C2464   1.411       .  A
C2459      H2465   1.083       .  S
C2461      H2466   1.084       .  S
C2462      C2463   1.411       .  A
C2463      C2464   1.408       .  A
C2464      H2468   1.083       .  S
C2469      C2470   1.402       .  A
C2470      C2471   1.417       .  A
C2471      C2472   1.425       .  A
C2471      H2476   1.084       .  S
C2472      C2473   1.479       .  A
C2472      H2477   1.078       .  S
C2474      H2478   1.081   1_554  S
C2479      C2484   1.397       .  A
C2479      H2485   1.084       .  S
C2480      C2481   1.401       .  A
C2481      C2482   1.381       .  A
C2481      H2486   1.083       .  S
C2482      C2483   1.397   1_556  A
C2482      H2487   1.082       .  S
C2484      H2488   1.083       .  S
C2489      C3346   1.410       .  A
C2489      C2494   1.395       .  A
C2489      H2495   1.083   1_565  S
C2490      C3345   1.410       .  A
C2490      C2491   1.401       .  A
C2491      C2492   1.398       .  A
C2491      H2496   1.083       .  S
C2492      C2493   1.411       .  A
C2492      H2497   1.084       .  S
C2493      C3114   1.470       .  S
C2493      C3350   1.399       .  A
C2494      C3349   1.399       .  A
C2494      H2498   1.083       .  S
C2499      C2500   1.388       .  A
C2499      C2504   1.392       .  A
C2499      H2505   1.084       .  S
C2500      C2501   1.407       .  A
C2501      C2502   1.392       .  A
C2501      H2506   1.081       .  S
C2502      C2503   1.399       .  A
C2502      H2507   1.084       .  S
C2503      C2504   1.412       .  A
C2504      H2508   1.068       .  S
C2509      C2510   1.403       .  A
C2509      C2514   1.405       .  A
C2509      H2515   1.083       .  S
C2510      C2511   1.416       .  A
C2511      C2512   1.406       .  A
C2511      H3372   1.083   1_545  S
C2512      C2513   1.401       .  A
C2512      H3373   1.082   1_545  S
C2513      C2514   1.416       .  A
C2514      H2518   1.083       .  S
H2516      C3367   1.083       .  S
H2517      C3368   1.082       .  S
C2519      C2520   1.393       .  A
C2519      C2524   1.402       .  A
C2519      H2525   1.083       .  S
C2520      C2521   1.421       .  A
C2521      C2522   1.400       .  A
C2521      H2526   1.083       .  S
C2522      C2523   1.393       .  A
C2522      H2527   1.083       .  S
C2523      C2524   1.421       .  A
C2524      H2528   1.080       .  S
C2529      C2530   1.421       .  A
C2529      C2534   1.402       .  A
C2529      H2535   1.082       .  S
C2530      C2531   1.386       .  A
C2531      C2532   1.390       .  A
C2531      H2536   1.084       .  S
C2532      C2533   1.416       .  A
C2532      H2537   1.068       .  S
C2533      C2534   1.396       .  A
C2534      H2538   1.083       .  S
C2539      C2540   1.416       .  A
C2539      C2544   1.419       .  A
C2539      H2545   1.083       .  S
C2540      C2541   1.433       .  A
C2541      C2542   1.462       .  A
C2541      H2546   1.082       .  S
C2542      C2543   1.432       .  A
C2542      H2547   1.080       .  S
C2543      C2544   1.422       .  A
C2544      H2548   1.083       .  S
C2549      C2550   1.553       .  A
C2549      C2554   1.424       .  A
C2549      H2555   1.081       .  S
C2551      C2552   1.432       .  A
C2551      H2556   1.083       .  S
C2552      H2557   1.071       .  S
C2553      C2554   1.407       .  A
C2554      H2558   1.071       .  S
C2559      C2564   1.377       .  A
C2559      H2565   1.073       .  S
C2560      C2561   1.398       .  A
C2561      C2562   1.397       .  A
C2561      H2566   1.083       .  S
C2562      C2563   1.414       .  A
C2562      H2567   1.084       .  S
C2564      H2568   1.084       .  S
O2569      C2596   1.256       .  A
O2569     Mn2595   1.998       .  S
C2570      C2988   1.444       .  S
O2571     Mn2595   2.098       .  S
O2572      C2582   1.276       .  A
O2572     Mn2606   2.179       .  S
O2574      C2601   1.273       .  A
O2574     Mn2593   2.292       .  S
O2575     Mn3034   1.960       .  S
O2575     Mn2595   1.977       .  S
O2575      C2591   1.213       .  S
C2576      O2579   1.229       .  A
C2576      C2898   1.499       .  S
C2576      O2602   1.265       .  S
O2577     Mn2597   1.945       .  S
O2577     Mn3039   1.986   1_554  S
Mn2578     O2607   2.011       .  S
Mn2578     O3011   2.057   1_554  S
Mn2578     O3038   2.107       .  S
O2579     Mn3021   1.937   1_554  S
O2580      C2582   1.251       .  A
O2580     Mn2587   2.032       .  S
C2581      O2607   1.251       .  A
C2581      C2948   1.485       .  S
C2582      C2938   1.500       .  S
O2583     Mn3006   2.057       .  S
O2584     Mn2587   2.185       .  S
O2584     Mn2606   2.044       .  S
O2585     Mn2589   1.974       .  S
O2585     Mn2611   2.061       .  S
O2585      C2608   1.240       .  S
C2586      O2612   1.152       .  A
C2586      O3016   1.377       .  A
Mn2587     O2600   2.171       .  S
O2588      C3014   1.377       .  A
O2588     Mn2611   2.443       .  S
Mn2589     O2599   2.024       .  S
O2590      C2592   1.263       .  A
C2591      O2609   1.261       .  A
C2591      C2908   1.443       .  S
C2592      O2605   1.287       .  A
C2592      C2958   1.476       .  S
Mn2593     O3007   1.937       .  S
O2594     Mn2597   1.977       .  S
Mn2595     O2613   1.912       .  S
C2596      C2928   1.452       .  S
Mn2597     O2604   2.164       .  S
Mn2597     O2612   1.814       .  S
C2598      O2604   1.262       .  A
C2598      O3042   1.231   1_554  A
C2598      C2881   1.451       .  S
O2599     Mn2611   2.006       .  S
C2601      C2968   1.579       .  S
O2603     Mn2606   2.032       .  S
Mn2606     O3003   1.960   1_554  S
Mn2606     O3041   1.939       .  S
C2608      C2918   1.479       .  S
O2610      C2615   1.246       .  A
O2610     Mn3006   2.107       .  S
Mn2611     O2614   1.935       .  S
Mn2611     O3005   1.986       .  S
O2613     Mn3034   1.939       .  S
O2614      C3026   1.231       .  A
C2615      C3316   1.487       .  S
O2616      C2643   1.270       .  A
O2616     Mn2642   2.062       .  S
C2617      C2991   1.447       .  S
O2618     Mn2625   2.120       .  S
O2618     Mn2636   2.112       .  S
O2619      C2629   1.280       .  A
O2619     Mn2653   2.190       .  S
O2620      C2643   1.287       .  A
O2621      C2648   1.293       .  A
O2621     Mn2640   2.313       .  S
O2622     Mn2653   1.973       .  S
O2622     Mn2642   2.016       .  S
O2622      C2638   1.241       .  S
C2623      O2626   1.240       .  A
C2623      C2828   1.514       .  S
C2623      O2649   1.258       .  S
O2624     Mn2644   2.091       .  S
O2624     Mn2625   2.044       .  S
O2624     Mn2658   2.107       .  S
Mn2625     O2654   2.013       .  S
Mn2625     O2630   2.100       .  S
Mn2625     O2657   1.986       .  S
O2626     Mn2640   2.022       .  S
O2627      C2629   1.249       .  A
O2627     Mn2634   2.014       .  S
C2628      O2654   1.250       .  A
C2628      C2838   1.487       .  S
C2628      O2641   1.247       .  S
C2629      C2848   1.475       .  S
O2630      C2655   1.250       .  A
O2631     Mn2634   2.145       .  S
O2631     Mn2653   2.099       .  S
O2631     Mn2640   2.155       .  S
O2632     Mn2636   1.933       .  S
O2632     Mn2658   2.023       .  S
O2632      C2655   1.220       .  S
C2633      C2981   1.590       .  S
Mn2634     O2647   2.139       .  S
Mn2634     O2649   2.023       .  S
O2635     Mn2658   2.330       .  S
Mn2636     O2652   2.160       .  S
Mn2636     O2646   2.027       .  S
O2637      C2639   1.255       .  A
C2638      O2656   1.276       .  A
C2638      C2818   1.504       .  S
C2639      O2652   1.281       .  A
C2639      C2961   1.483       .  S
Mn2640     O2656   2.131       .  S
O2641     Mn2644   1.978       .  S
C2643      C2858   1.458       .  S
Mn2644     O2651   2.128       .  S
Mn2644     O2659   2.023   1_655  S
C2645      O2651   1.263       .  A
C2645      O2661   1.247       .  A
C2645      C2808   1.427       .  S
O2646     Mn2658   2.020       .  S
C2648      C2971   1.583       .  S
O2650     Mn2653   2.045       .  S
C2655      C2868   1.465       .  S
O2657      C2662   1.230       .  A
Mn2658     O2661   2.012       .  S
O2660      C2662   1.251       .  S
C2662      C2798   1.519       .  S
O2663      C2690   1.280       .  A
O2663     Mn2689   2.121       .  S
C2664      O2697   1.245       .  A
C2664      O2694   1.285       .  A
C2664      C2951   1.488       .  S
O2665     Mn2672   2.108       .  S
O2665     Mn2683   2.110       .  S
O2665     Mn2687   2.086       .  S
O2665     Mn2689   2.101       .  S
O2666      C2676   1.284       .  A
O2666     Mn2700   2.188       .  S
O2667      C2690   1.275       .  A
O2667     Mn2683   2.067       .  S
O2668      C2695   1.274       .  A
O2668     Mn2687   2.153       .  S
O2669     Mn2700   1.937       .  S
O2669     Mn2689   1.974       .  S
O2669      C2685   1.208       .  S
C2670      O2673   1.240       .  A
C2670      C2821   1.526       .  S
C2670      O2696   1.256       .  S
O2671     Mn2691   2.109       .  S
O2671     Mn2672   2.047       .  S
O2671     Mn2687   2.227       .  S
Mn2672     O2678   2.184       .  S
O2673     Mn2687   2.044       .  S
O2674      C2676   1.254       .  A
O2674     Mn2681   2.032       .  S
C2675      O2701   1.255       .  A
C2675      C2768   1.446       .  S
C2676      C2758   1.476       .  S
O2677      C2702   1.265       .  A
O2678     Mn2681   2.131       .  S
O2678     Mn2700   2.100       .  S
O2678     Mn2687   2.124       .  S
O2679     Mn2705   2.037       .  S
O2679      C2702   1.216       .  S
C2680      O2706   1.224       .  A
C2680      O2682   1.271       .  A
C2680      C2941   1.488       .  S
Mn2681     O2694   2.198       .  S
Mn2681     O2696   2.045       .  S
Mn2681     O2688   1.979       .  S
Mn2683     O2693   1.973       .  S
O2684      C2686   1.255       .  A
O2684     Mn2689   2.052       .  S
C2685      O2703   1.278       .  A
C2685      C2801   1.517       .  S
Mn2687     O2703   2.207       .  S
O2688     Mn2691   1.972       .  S
Mn2689     O2707   1.947       .  S
C2690      C2788   1.468       .  S
Mn2691     O2706   2.002       .  S
Mn2691     O2696   1.954       .  S
C2692      O2698   1.276       .  A
C2692      O2708   1.283       .  A
C2692      C2831   1.497       .  S
O2693      C2695   1.208       .  S
C2695      C2931   1.458       .  S
O2697     Mn2700   2.027       .  S
Mn2700     O2707   1.957       .  S
C2702      C2781   1.534       .  S
Mn2705     O2708   2.100       .  S
O2707      C2709   1.222       .  S
O2710      C2737   1.273       .  A
O2710     Mn2736   2.129       .  S
C2711      O2744   1.253       .  A
C2711      O2741   1.276       .  A
C2711      C2911   1.457       .  S
O2712     Mn3147   2.150       .  S
O2712     Mn3158   2.053       .  S
O2712     Mn2734   2.139       .  S
O2712     Mn2736   2.092       .  S
O2713      C2723   1.285       .  A
O2713     Mn2747   2.179       .  S
O2714      C2737   1.257       .  A
O2714     Mn3158   2.050       .  S
O2715      C2742   1.253       .  A
O2715     Mn2734   2.218       .  S
O2716     Mn2747   1.892       .  S
O2716     Mn2736   1.893       .  S
O2716      C2732   1.199       .  S
C2717      O2720   1.251       .  A
C2717      C2778   1.548       .  S
C2717      O2743   1.271       .  S
O2718     Mn2738   2.127       .  S
O2718     Mn2719   2.076       .  S
O2718     Mn2752   2.038       .  S
O2718     Mn3162   2.231   1_554  S
Mn2719     O2748   2.081       .  S
Mn2719     O2724   2.137       .  S
Mn2719     O2751   2.038       .  S
Mn2719     O3140   2.150       .  S
Mn2719     O3153   2.135   1_554  S
O2720     Mn2734   2.018       .  S
O2721      C2723   1.261       .  A
O2721     Mn2728   2.019       .  S
C2722      O2748   1.260       .  A
C2722      C2851   1.476       .  S
C2722      O2735   1.227       .  S
C2723      C2861   1.469       .  S
O2724      C2749   1.264       .  A
O2725     Mn3147   2.135       .  S
O2725     Mn2728   2.114       .  S
O2725     Mn2747   2.081       .  S
O2725     Mn2734   2.120       .  S
O2726     Mn2730   1.983       .  S
O2726     Mn2752   2.041       .  S
O2726      C2749   1.213       .  S
C2727      O3181   1.176       .  A
C2727      O2729   1.296       .  A
C2727      C3329   1.744       .  S
Mn2728     O2741   2.121       .  S
Mn2728     O2743   2.073       .  S
Mn2728     O3163   1.911       .  S
O2729     Mn3180   2.191       .  S
Mn2730     O3142   2.050   1_554  S
Mn2730     O2746   2.174       .  S
Mn2730     O3140   2.053       .  S
Mn2730     O3168   1.928   1_554  S
O2731      C3161   1.250       .  A
O2731     Mn2736   2.033       .  S
C2732      O2750   1.270       .  A
C2732      C2791   1.489       .  S
C2733      O3159   1.250       .  A
C2733      O2746   1.283       .  A
C2733      C2891   1.485       .  S
Mn2734     O2750   2.215       .  S
Mn2734     O3146   2.231       .  S
O2735     Mn3156   1.911   1_554  S
O2735     Mn2738   1.947       .  S
Mn2736     O2754   1.966       .  S
C2737      C2871   1.489       .  S
Mn2738     O2745   2.117       .  S
Mn2738     O2753   1.989       .  S
Mn2738     O3171   2.039   1_554  S
C2739      O2745   1.282       .  A
C2739      O2755   1.266       .  A
C2739      C2771   1.448       .  S
O2740     Mn3158   1.928       .  S
O2740     Mn3180   1.865       .  S
O2740      C2742   1.180       .  S
C2742      C2878   1.466       .  S
O2743     Mn3166   2.039       .  S
O2744     Mn2747   2.035       .  S
Mn2747     O2754   2.033       .  S
C2749      C2841   1.485       .  S
O2751      C2756   1.239       .  A
Mn2752     O3157   2.191   1_554  S
Mn2752     O2755   2.019       .  S
Mn2752     O3168   1.865   1_554  S
O2753      C3155   1.176   1_554  A
O2754      C3184   1.230       .  S
C2756      C2761   1.497       .  S
C2756      O3182   1.230       .  S
C2757      C2758   1.414       .  A
C2757      C2762   1.411       .  A
C2757      H2763   1.083       .  S
C2758      C2759   1.399       .  A
C2759      C2760   1.399       .  A
C2759      H2764   1.084       .  S
C2760      C2761   1.413       .  A
C2760      H2765   1.083       .  S
C2761      C2762   1.404       .  A
C2762      H2766   1.083       .  S
C2767      C2768   1.386       .  A
C2767      C2772   1.375       .  A
C2767      H2773   1.083       .  S
C2768      C2769   1.412       .  A
C2769      C2770   1.395       .  A
C2769      H2774   1.082       .  S
C2770      C2771   1.392       .  A
C2770      H2775   1.083       .  S
C2771      C2772   1.408       .  A
C2772      H2776   1.084       .  S
C2777      C2778   1.428       .  A
C2777      C2782   1.416       .  A
C2777      H2783   1.083       .  S
C2778      C2779   1.413       .  A
C2779      C2780   1.428       .  A
C2779      H2784   1.071       .  S
C2780      C2781   1.421       .  A
C2780      H2785   1.083       .  S
C2781      C2782   1.404       .  A
C2782      H2786   1.083       .  S
C2787      C2788   1.385       .  A
C2787      C2792   1.372       .  A
C2787      H2793   1.085       .  S
C2788      C2789   1.415       .  A
C2789      C2790   1.418       .  A
C2789      H2794   1.080       .  S
C2790      C2791   1.405       .  A
C2790      H2795   1.081       .  S
C2791      C2792   1.416       .  A
C2792      H2796   1.081       .  S
C2797      C2798   1.401       .  A
C2797      C2802   1.418       .  A
C2797      H2803   1.083       .  S
C2798      C2799   1.428       .  A
C2799      C2800   1.408       .  A
C2799      H2804   1.082       .  S
C2800      C2801   1.395       .  A
C2800      H2805   1.083       .  S
C2801      C2802   1.429       .  A
C2802      H2806   1.083       .  S
C2807      C2808   1.392       .  A
C2807      C2812   1.383       .  A
C2807      H2813   1.084       .  S
C2808      C2809   1.405       .  A
C2809      C2810   1.373       .  A
C2809      H2814   1.079       .  S
C2810      C2811   1.388       .  A
C2810      H2815   1.084       .  S
C2811      C2812   1.409       .  A
C2812      H2816   1.084       .  S
C2817      C2818   1.417       .  A
C2817      C2822   1.434       .  A
C2817      H2823   1.073       .  S
C2818      C2819   1.383       .  A
C2819      C2820   1.396       .  A
C2819      H2824   1.083       .  S
C2820      C2821   1.404       .  A
C2820      H2825   1.048       .  S
C2821      C2822   1.407       .  A
C2822      H2826   1.081       .  S
C2827      C2828   1.406       .  A
C2827      C2832   1.426       .  A
C2827      H2833   1.080       .  S
C2828      C2829   1.410       .  A
C2829      C2830   1.381       .  A
C2829      H2834   1.064       .  S
C2830      C2831   1.388       .  A
C2830      H2835   1.081       .  S
C2831      C2832   1.423       .  A
C2832      H2836   1.083       .  S
C2837      C2838   1.395       .  A
C2837      C2842   1.400       .  A
C2837      H2843   1.081       .  S
C2838      C2839   1.419       .  A
C2839      C2840   1.398       .  A
C2839      H2844   1.083       .  S
C2840      C2841   1.396       .  A
C2840      H2845   1.083       .  S
C2841      C2842   1.416       .  A
C2842      H2846   1.079       .  S
C2847      C2848   1.409       .  A
C2847      C2852   1.394       .  A
C2847      H2853   1.084       .  S
C2848      C2849   1.397       .  A
C2849      C2850   1.403       .  A
C2849      H2854   1.076       .  S
C2850      C2851   1.408       .  A
C2850      H2855   1.083       .  S
C2851      C2852   1.400       .  A
C2852      H2856   1.083       .  S
C2857      C2858   1.407       .  A
C2857      C2862   1.400       .  A
C2857      H2863   1.084       .  S
C2858      C2859   1.395       .  A
C2859      C2860   1.388       .  A
C2859      H2864   1.084       .  S
C2860      C2861   1.409       .  A
C2860      H2865   1.084       .  S
C2861      C2862   1.401       .  A
C2862      H2866   1.082       .  S
C2867      C2868   1.407       .  A
C2867      C2872   1.408       .  A
C2867      H2873   1.082       .  S
C2868      C2869   1.390       .  A
C2869      C2870   1.384       .  A
C2869      H2874   1.084       .  S
C2870      C2871   1.411       .  A
C2870      H2875   1.071       .  S
C2871      C2872   1.403       .  A
C2872      H2876   1.081       .  S
C2877      C2878   1.413       .  A
C2877      C2882   1.413       .  A
C2877      H2883   1.081       .  S
C2878      C2879   1.407       .  A
C2879      C3308   1.389       .  A
C2879      H2884   1.068       .  S
C2880      C3307   1.389   1_554  A
C2880      C2881   1.398       .  A
C2880      H2885   1.087       .  S
C2881      C3310   1.410   1_554  A
C2882      C3309   1.410       .  A
C2882      H2886   1.082       .  S
C2887      C2888   1.409       .  A
C2887      C2892   1.411       .  A
C2887      H2893   1.083   1_554  S
C2888      C3043   1.487       .  S
C2888      C3317   1.401       .  A
C2889      C3316   1.401       .  A
C2889      C3318   1.396       .  A
C2889      H2894   1.084       .  S
C2890      C3317   1.396       .  A
C2890      C2891   1.411       .  A
C2890      H3323   1.084       .  S
C2891      C2892   1.408       .  A
C2892      H2896   1.083   1_554  S
H2895      C3318   1.084       .  S
C2897      C2898   1.402       .  A
C2897      C3330   1.407       .  A
C2897      H3331   1.084       .  S
C2898      C2899   1.417       .  A
C2899      C2900   1.425       .  A
C2899      H2904   1.084       .  S
C2900      C2901   1.479       .  A
C2900      H2905   1.078       .  S
C2901      C3155   1.744   1_554  S
C2901      C3330   1.560       .  A
C2902      C3325   1.407       .  A
C2902      C3329   1.560       .  A
C2902      H2906   1.081       .  S
H2903      C3325   1.084       .  S
C2907      C3336   1.400   1_554  A
C2907      C2912   1.397       .  A
C2907      H2913   1.084       .  S
C2908      C3335   1.400       .  A
C2908      C2909   1.401       .  A
C2909      C2910   1.381       .  A
C2909      H2914   1.083       .  S
C2910      C2911   1.397       .  A
C2910      H2915   1.082       .  S
C2911      C3340   1.407       .  A
C2912      C3339   1.407       .  A
C2912      H2916   1.083       .  S
C2917      C2922   1.395       .  A
C2917      H2923   1.083       .  S
C2918      C2919   1.401       .  A
C2919      C2920   1.398       .  A
C2919      H2924   1.083       .  S
C2920      C2921   1.411       .  A
C2920      H2925   1.084       .  S
C2922      H2926   1.083       .  S
C2927      C2928   1.388       .  A
C2927      C2932   1.392       .  A
C2927      H2933   1.084       .  S
C2928      C2929   1.407       .  A
C2929      C2930   1.392       .  A
C2929      H2934   1.081       .  S
C2930      C2931   1.399       .  A
C2930      H2935   1.084       .  S
C2931      C2932   1.412       .  A
C2932      H2936   1.068       .  S
C2937      C2938   1.403       .  A
C2937      C2942   1.405       .  A
C2937      H2943   1.083       .  S
C2938      C2939   1.416       .  A
C2939      C2940   1.406       .  A
C2940      C2941   1.401       .  A
C2941      C2942   1.416       .  A
C2942      H2946   1.083       .  S
C2947      C2948   1.393       .  A
C2947      C2952   1.402       .  A
C2947      H2953   1.083       .  S
C2948      C2949   1.421       .  A
C2949      C2950   1.400       .  A
C2949      H2954   1.083       .  S
C2950      C2951   1.393       .  A
C2950      H2955   1.083       .  S
C2951      C2952   1.421       .  A
C2952      H2956   1.080       .  S
C2957      C2958   1.421       .  A
C2957      C2962   1.402       .  A
C2957      H2963   1.082       .  S
C2958      C2959   1.386       .  A
C2959      C2960   1.390       .  A
C2959      H2964   1.084       .  S
C2960      C2961   1.416       .  A
C2960      H2965   1.068       .  S
C2961      C2962   1.396       .  A
C2962      H2966   1.083       .  S
C2967      C2968   1.416       .  A
C2967      C2972   1.419       .  A
C2967      H2973   1.083       .  S
C2968      C2969   1.433       .  A
C2969      C2970   1.462       .  A
C2969      H2974   1.082       .  S
C2970      C2971   1.432       .  A
C2970      H2975   1.080       .  S
C2971      C2972   1.422       .  A
C2972      H2976   1.083       .  S
C2977      C2978   1.553       .  A
C2977      C2982   1.424       .  A
C2977      H2983   1.081       .  S
C2979      C2980   1.432       .  A
C2979      H2984   1.083       .  S
C2980      H2985   1.071       .  S
C2981      C2982   1.407       .  A
C2982      H2986   1.071       .  S
C2987      C2992   1.377       .  A
C2987      H2993   1.073       .  S
C2988      C2989   1.398       .  A
C2989      C2990   1.397       .  A
C2989      H2994   1.083       .  S
C2990      C2991   1.414       .  A
C2990      H2995   1.084       .  S
C2992      H2996   1.084       .  S
O2997      C3024   1.256       .  A
O2997     Mn3023   1.998       .  S
C2998      C3416   1.444       .  S
O2999     Mn3023   2.098       .  S
O3000      C3010   1.276       .  A
O3000     Mn3034   2.179       .  S
O3002      C3029   1.273       .  A
O3002     Mn3021   2.292       .  S
O3003     Mn3023   1.977       .  S
O3003      C3019   1.213       .  S
C3004      O3007   1.229       .  A
C3004      C3326   1.499       .  S
C3004      O3030   1.265       .  S
O3005     Mn3025   1.945       .  S
Mn3006     O3035   2.011       .  S
O3008      C3010   1.251       .  A
O3008     Mn3015   2.032       .  S
C3009      O3035   1.251       .  A
C3009      C3376   1.485       .  S
C3010      C3366   1.500       .  S
O3012     Mn3015   2.185       .  S
O3012     Mn3034   2.044       .  S
O3013     Mn3017   1.974       .  S
O3013     Mn3039   2.061       .  S
O3013      C3036   1.240       .  S
C3014      O3040   1.152       .  A
Mn3015     O3028   2.171       .  S
O3016     Mn3039   2.443   1_554  S
Mn3017     O3027   2.024       .  S
O3018      C3020   1.263       .  A
C3019      O3037   1.261       .  A
C3019      C3336   1.443       .  S
C3020      O3033   1.287       .  A
C3020      C3386   1.476       .  S
O3022     Mn3025   1.977       .  S
Mn3023     O3041   1.912   1_556  S
C3024      C3356   1.452       .  S
Mn3025     O3032   2.163       .  S
Mn3025     O3040   1.814       .  S
C3026      O3032   1.262       .  A
C3026      C3309   1.451       .  S
O3027     Mn3039   2.006       .  S
C3029      C3396   1.579       .  S
O3031     Mn3034   2.032       .  S
C3036      C3346   1.479       .  S
O3038      C3043   1.246       .  A
Mn3039     O3042   1.935       .  S
O3044      C3071   1.270       .  A
O3044     Mn3070   2.062       .  S
C3045      C3419   1.447       .  S
O3046     Mn3053   2.120       .  S
O3046     Mn3064   2.112       .  S
O3047      C3057   1.280       .  A
O3047     Mn3081   2.190       .  S
O3048      C3071   1.287       .  A
O3049      C3076   1.293       .  A
O3049     Mn3068   2.313       .  S
O3050     Mn3081   1.973       .  S
O3050     Mn3070   2.016       .  S
O3050      C3066   1.241       .  S
C3051      O3054   1.240       .  A
C3051      C3256   1.514       .  S
C3051      O3077   1.258       .  S
O3052     Mn3072   2.091       .  S
O3052     Mn3053   2.044       .  S
O3052     Mn3086   2.107       .  S
Mn3053     O3082   2.013       .  S
Mn3053     O3058   2.100       .  S
Mn3053     O3085   1.986       .  S
O3054     Mn3068   2.023       .  S
O3055      C3057   1.249       .  A
O3055     Mn3062   2.014       .  S
C3056      O3082   1.250       .  A
C3056      C3266   1.487       .  S
C3056      O3069   1.247       .  S
C3057      C3276   1.475       .  S
O3058      C3083   1.250       .  A
O3059     Mn3062   2.145       .  S
O3059     Mn3081   2.099       .  S
O3059     Mn3068   2.155       .  S
O3060     Mn3064   1.933       .  S
O3060     Mn3086   2.023       .  S
O3060      C3083   1.220       .  S
C3061      C3409   1.590       .  S
Mn3062     O3075   2.139       .  S
Mn3062     O3077   2.023       .  S
O3063     Mn3086   2.330       .  S
Mn3064     O3080   2.160       .  S
Mn3064     O3074   2.027       .  S
O3065      C3067   1.255       .  A
C3066      O3084   1.276       .  A
C3066      C3246   1.504       .  S
C3067      O3080   1.281       .  A
C3067      C3389   1.483       .  S
Mn3068     O3084   2.131       .  S
O3069     Mn3072   1.978       .  S
C3071      C3286   1.458       .  S
Mn3072     O3079   2.128       .  S
Mn3072     O3087   2.023   1_655  S
C3073      O3079   1.263       .  A
C3073      O3089   1.247       .  A
C3073      C3236   1.427       .  S
O3074     Mn3086   2.020       .  S
C3076      C3399   1.583       .  S
O3078     Mn3081   2.045       .  S
C3083      C3296   1.465       .  S
O3085      C3090   1.230       .  A
Mn3086     O3089   2.012       .  S
O3088      C3090   1.251       .  S
C3090      C3226   1.519       .  S
O3091      C3118   1.280       .  A
O3091     Mn3117   2.121       .  S
C3092      O3125   1.245       .  A
C3092      O3122   1.285       .  A
C3092      C3379   1.488       .  S
O3093     Mn3100   2.108       .  S
O3093     Mn3111   2.110       .  S
O3093     Mn3115   2.086       .  S
O3093     Mn3117   2.101       .  S
O3094      C3104   1.284       .  A
O3094     Mn3128   2.188       .  S
O3095      C3118   1.275       .  A
O3095     Mn3111   2.067       .  S
O3096      C3123   1.274       .  A
O3096     Mn3115   2.153       .  S
O3097     Mn3128   1.937       .  S
O3097     Mn3117   1.974       .  S
O3097      C3113   1.208       .  S
C3098      O3101   1.240       .  A
C3098      C3249   1.526       .  S
C3098      O3124   1.256       .  S
O3099     Mn3119   2.109       .  S
O3099     Mn3100   2.047       .  S
O3099     Mn3115   2.227       .  S
Mn3100     O3106   2.184       .  S
O3101     Mn3115   2.044       .  S
O3102      C3104   1.254       .  A
O3102     Mn3109   2.032       .  S
C3103      O3129   1.255       .  A
C3103      C3196   1.446       .  S
C3104      C3186   1.476       .  S
O3105      C3130   1.265       .  A
O3106     Mn3109   2.131       .  S
O3106     Mn3128   2.100       .  S
O3106     Mn3115   2.124       .  S
O3107     Mn3133   2.037       .  S
O3107      C3130   1.216       .  S
C3108      O3134   1.224       .  A
C3108      O3110   1.271       .  A
C3108      C3369   1.488       .  S
Mn3109     O3122   2.198       .  S
Mn3109     O3124   2.045       .  S
Mn3109     O3116   1.979       .  S
Mn3111     O3121   1.973       .  S
O3112      C3114   1.255       .  A
O3112     Mn3117   2.052       .  S
C3113      O3131   1.278       .  A
C3113      C3229   1.517       .  S
Mn3115     O3131   2.207       .  S
O3116     Mn3119   1.972       .  S
Mn3117     O3135   1.947       .  S
C3118      C3216   1.468       .  S
Mn3119     O3134   2.002       .  S
Mn3119     O3124   1.954       .  S
C3120      O3126   1.276       .  A
C3120      O3136   1.283       .  A
C3120      C3259   1.497       .  S
O3121      C3123   1.208       .  S
C3123      C3359   1.458       .  S
O3125     Mn3128   2.027       .  S
Mn3128     O3135   1.957       .  S
C3130      C3209   1.534       .  S
Mn3133     O3136   2.100       .  S
O3135      C3137   1.222       .  S
O3138      C3165   1.273       .  A
O3138     Mn3164   2.129       .  S
C3139      O3172   1.253       .  A
C3139      O3169   1.276   1_554  A
C3139      C3339   1.457       .  S
O3140     Mn3162   2.139   1_554  S
O3140     Mn3164   2.092   1_554  S
O3141      C3151   1.285       .  A
O3141     Mn3175   2.179       .  S
O3142      C3165   1.257       .  A
O3143      C3170   1.253       .  A
O3143     Mn3162   2.218       .  S
O3144     Mn3175   1.892       .  S
O3144     Mn3164   1.893       .  S
O3144      C3160   1.199       .  S
C3145      O3148   1.251       .  A
C3145      C3206   1.548       .  S
C3145      O3171   1.271       .  S
O3146     Mn3166   2.127       .  S
O3146     Mn3147   2.076       .  S
O3146     Mn3180   2.038       .  S
Mn3147     O3176   2.081       .  S
Mn3147     O3152   2.137       .  S
Mn3147     O3179   2.038       .  S
O3148     Mn3162   2.018       .  S
O3149      C3151   1.261       .  A
O3149     Mn3156   2.019       .  S
C3150      O3176   1.260       .  A
C3150      C3279   1.476       .  S
C3150      O3163   1.227       .  S
C3151      C3289   1.469       .  S
O3152      C3177   1.264       .  A
O3153     Mn3156   2.114       .  S
O3153     Mn3175   2.081       .  S
O3153     Mn3162   2.120       .  S
O3154     Mn3158   1.983       .  S
O3154     Mn3180   2.041       .  S
O3154      C3177   1.213       .  S
C3155      O3157   1.296       .  A
Mn3156     O3169   2.121       .  S
Mn3156     O3171   2.073       .  S
Mn3158     O3174   2.174       .  S
O3159     Mn3164   2.033   1_554  S
C3160      O3178   1.270       .  A
C3160      C3219   1.489       .  S
C3161      O3174   1.283       .  A
C3161      C3319   1.485       .  S
Mn3162     O3178   2.215       .  S
O3163     Mn3166   1.947       .  S
Mn3164     O3182   1.966   1_556  S
C3165      C3299   1.489       .  S
Mn3166     O3173   2.117       .  S
Mn3166     O3181   1.989       .  S
C3167      O3173   1.282       .  A
C3167      O3183   1.266       .  A
C3167      C3199   1.448       .  S
O3168      C3170   1.180       .  S
C3170      C3306   1.466       .  S
O3172     Mn3175   2.035   1_554  S
Mn3175     O3182   2.033   1_556  S
C3177      C3269   1.485       .  S
O3179      C3184   1.239       .  A
Mn3180     O3183   2.019       .  S
C3184      C3189   1.497       .  S
C3185      C3186   1.414       .  A
C3185      C3190   1.411       .  A
C3185      H3191   1.083       .  S
C3186      C3187   1.399       .  A
C3187      C3188   1.399       .  A
C3187      H3192   1.084       .  S
C3188      C3189   1.413       .  A
C3188      H3193   1.083       .  S
C3189      C3190   1.404       .  A
C3190      H3194   1.083       .  S
C3195      C3196   1.386       .  A
C3195      C3200   1.375       .  A
C3195      H3201   1.083       .  S
C3196      C3197   1.412       .  A
C3197      C3198   1.395       .  A
C3197      H3202   1.082       .  S
C3198      C3199   1.392       .  A
C3198      H3203   1.083       .  S
C3199      C3200   1.408       .  A
C3200      H3204   1.084       .  S
C3205      C3206   1.428       .  A
C3205      C3210   1.416       .  A
C3205      H3211   1.083       .  S
C3206      C3207   1.413       .  A
C3207      C3208   1.428       .  A
C3207      H3212   1.071       .  S
C3208      C3209   1.421       .  A
C3208      H3213   1.083       .  S
C3209      C3210   1.404       .  A
C3210      H3214   1.083       .  S
C3215      C3216   1.385       .  A
C3215      C3220   1.372       .  A
C3215      H3221   1.085       .  S
C3216      C3217   1.415       .  A
C3217      C3218   1.418       .  A
C3217      H3222   1.080       .  S
C3218      C3219   1.405       .  A
C3218      H3223   1.081       .  S
C3219      C3220   1.416       .  A
C3220      H3224   1.081       .  S
C3225      C3226   1.401       .  A
C3225      C3230   1.418       .  A
C3225      H3231   1.083       .  S
C3226      C3227   1.428       .  A
C3227      C3228   1.408       .  A
C3227      H3232   1.082       .  S
C3228      C3229   1.395       .  A
C3228      H3233   1.083       .  S
C3229      C3230   1.429       .  A
C3230      H3234   1.083       .  S
C3235      C3236   1.392       .  A
C3235      C3240   1.383       .  A
C3235      H3241   1.084       .  S
C3236      C3237   1.405       .  A
C3237      C3238   1.373       .  A
C3237      H3242   1.079       .  S
C3238      C3239   1.388       .  A
C3238      H3243   1.084       .  S
C3239      C3240   1.409       .  A
C3240      H3244   1.084       .  S
C3245      C3246   1.417       .  A
C3245      C3250   1.434       .  A
C3245      H3251   1.073       .  S
C3246      C3247   1.383       .  A
C3247      C3248   1.396       .  A
C3247      H3252   1.083       .  S
C3248      C3249   1.404       .  A
C3248      H3253   1.048       .  S
C3249      C3250   1.407       .  A
C3250      H3254   1.081       .  S
C3255      C3256   1.406       .  A
C3255      C3260   1.426       .  A
C3255      H3261   1.080       .  S
C3256      C3257   1.410       .  A
C3257      C3258   1.381       .  A
C3257      H3262   1.064       .  S
C3258      C3259   1.388       .  A
C3258      H3263   1.081       .  S
C3259      C3260   1.423       .  A
C3260      H3264   1.083       .  S
C3265      C3266   1.395       .  A
C3265      C3270   1.400       .  A
C3265      H3271   1.081       .  S
C3266      C3267   1.419       .  A
C3267      C3268   1.398       .  A
C3267      H3272   1.083       .  S
C3268      C3269   1.396       .  A
C3268      H3273   1.083       .  S
C3269      C3270   1.416       .  A
C3270      H3274   1.079       .  S
C3275      C3276   1.409       .  A
C3275      C3280   1.394       .  A
C3275      H3281   1.084       .  S
C3276      C3277   1.397       .  A
C3277      C3278   1.403       .  A
C3277      H3282   1.076       .  S
C3278      C3279   1.408       .  A
C3278      H3283   1.083       .  S
C3279      C3280   1.400       .  A
C3280      H3284   1.083       .  S
C3285      C3286   1.407       .  A
C3285      C3290   1.400       .  A
C3285      H3291   1.084       .  S
C3286      C3287   1.395       .  A
C3287      C3288   1.388       .  A
C3287      H3292   1.084       .  S
C3288      C3289   1.409       .  A
C3288      H3293   1.084       .  S
C3289      C3290   1.401       .  A
C3290      H3294   1.082       .  S
C3295      C3296   1.407       .  A
C3295      C3300   1.408       .  A
C3295      H3301   1.082       .  S
C3296      C3297   1.390       .  A
C3297      C3298   1.384       .  A
C3297      H3302   1.084       .  S
C3298      C3299   1.411       .  A
C3298      H3303   1.071       .  S
C3299      C3300   1.403       .  A
C3300      H3304   1.081       .  S
C3305      C3306   1.413       .  A
C3305      C3310   1.413       .  A
C3305      H3311   1.081       .  S
C3306      C3307   1.407       .  A
C3307      H3312   1.068       .  S
C3308      C3309   1.398       .  A
C3308      H3313   1.087       .  S
C3310      H3314   1.082   1_556  S
C3315      C3316   1.409       .  A
C3315      C3320   1.411       .  A
C3315      H3321   1.083       .  S
C3317      H3322   1.084       .  S
C3318      C3319   1.411       .  A
C3319      C3320   1.408       .  A
C3320      H3324   1.083       .  S
C3325      C3326   1.402       .  A
C3326      C3327   1.417       .  A
C3327      C3328   1.425       .  A
C3327      H3332   1.084       .  S
C3328      C3329   1.479       .  A
C3328      H3333   1.078       .  S
C3330      H3334   1.081   1_554  S
C3335      C3340   1.397       .  A
C3335      H3341   1.084       .  S
C3336      C3337   1.401       .  A
C3337      C3338   1.381       .  A
C3337      H3342   1.083       .  S
C3338      C3339   1.397   1_556  A
C3338      H3343   1.082       .  S
C3340      H3344   1.083       .  S
C3345      C3350   1.395       .  A
C3345      H3351   1.083       .  S
C3346      C3347   1.401       .  A
C3347      C3348   1.398       .  A
C3347      H3352   1.083       .  S
C3348      C3349   1.411       .  A
C3348      H3353   1.084       .  S
C3350      H3354   1.083       .  S
C3355      C3356   1.388       .  A
C3355      C3360   1.392       .  A
C3355      H3361   1.084       .  S
C3356      C3357   1.407       .  A
C3357      C3358   1.392       .  A
C3357      H3362   1.081       .  S
C3358      C3359   1.399       .  A
C3358      H3363   1.084       .  S
C3359      C3360   1.412       .  A
C3360      H3364   1.068       .  S
C3365      C3366   1.403       .  A
C3365      C3370   1.405       .  A
C3365      H3371   1.083       .  S
C3366      C3367   1.416       .  A
C3367      C3368   1.406       .  A
C3368      C3369   1.401       .  A
C3369      C3370   1.416       .  A
C3370      H3374   1.083       .  S
C3375      C3376   1.393       .  A
C3375      C3380   1.402       .  A
C3375      H3381   1.083       .  S
C3376      C3377   1.421       .  A
C3377      C3378   1.400       .  A
C3377      H3382   1.083       .  S
C3378      C3379   1.393       .  A
C3378      H3383   1.083       .  S
C3379      C3380   1.421       .  A
C3380      H3384   1.080       .  S
C3385      C3386   1.421       .  A
C3385      C3390   1.402       .  A
C3385      H3391   1.082       .  S
C3386      C3387   1.386       .  A
C3387      C3388   1.390       .  A
C3387      H3392   1.084       .  S
C3388      C3389   1.416       .  A
C3388      H3393   1.068       .  S
C3389      C3390   1.396       .  A
C3390      H3394   1.083       .  S
C3395      C3396   1.416       .  A
C3395      C3400   1.419       .  A
C3395      H3401   1.083       .  S
C3396      C3397   1.433       .  A
C3397      C3398   1.462       .  A
C3397      H3402   1.082       .  S
C3398      C3399   1.432       .  A
C3398      H3403   1.080       .  S
C3399      C3400   1.422       .  A
C3400      H3404   1.083       .  S
C3405      C3406   1.553       .  A
C3405      C3410   1.424       .  A
C3405      H3411   1.081       .  S
C3407      C3408   1.432       .  A
C3407      H3412   1.083       .  S
C3408      H3413   1.071       .  S
C3409      C3410   1.407       .  A
C3410      H3414   1.071       .  S
C3415      C3420   1.377       .  A
C3415      H3421   1.073       .  S
C3416      C3417   1.398       .  A
C3417      C3418   1.397       .  A
C3417      H3422   1.083       .  S
C3418      C3419   1.414       .  A
C3418      H3423   1.084       .  S
C3420      H3424   1.084       .  S
