geometry optimzed in LAMMPS
_audit_creation_date              2020-11-30 
_audit_creation_method            'lammps2cif' 
_symmetry_space_group_name_H-M    'P1' 
_symmetry_Int_Tables_number       1 
_symmetry_cell_setting            triclinic 
loop_ 
_symmetry_equiv_pos_as_xyz 
  x,y,z 
_cell_length_a                    39.45142729 
_cell_length_b                    25.813980707533975 
_cell_length_c                    46.439052701511436 
_cell_angle_alpha                 97.81432594841046 
_cell_angle_beta                  73.91026762934835 
_cell_angle_gamma                 87.62922165919764 
loop_ 
_atom_site_label 
_atom_site_type_symbol 
_atom_site_fract_x 
_atom_site_fract_y 
_atom_site_fract_z 
_atom_site_charge 
O1          O  0.47430872  0.37032484  0.48634141    -0.79300
O2          O  0.48920255  0.61207108  0.48712516    -0.64000
O3          O  0.00808824  0.46302843  0.47743506    -1.10600
C4          C  0.00333069  0.49678366  0.08252537     1.07600
O5          O  0.02804056  0.62812868  0.01361978    -0.77200
O6          O  0.06546674  0.54599445  0.02357115    -0.64800
Ni7        Ni  0.48201239  0.41791650  0.45678375     1.34900
C8          C  0.07538154  0.49816915  0.01266938     0.86300
O9          O  0.50378811  0.53745227  0.43860775    -0.77800
O10         O  0.48810842  0.45808212  0.42358891    -0.88000
C11         C  0.00794219  0.64274596  0.49795715     0.85900
O12         O  0.43628230  0.45262487  0.47723152    -0.66200
O13         O  0.01309357  0.54191469  0.07720214    -0.85500
C14         C  0.42617469  0.50036811  0.48819493     0.86700
C15         C  0.49776055  0.50330980  0.41839864     1.08300
H16         H  0.46898996  0.54371225  0.03477511     0.40100
O17         O  0.49361867  0.53574779  0.02348266    -1.08200
O18         O  0.05393722  0.46301805  0.01157564    -0.64800
Ni19       Ni  0.00338450  0.46146320  0.01959040     1.26300
O20         O  0.44745284  0.53577407  0.48932557    -0.65100
O21         O  0.99747181  0.46239114  0.06234884    -0.77300
C22         C  0.49459967  0.35584041  0.00191816     0.86100
O23         O  0.01195745  0.38717575  0.01413029    -0.64500
Ni24       Ni  0.01978491  0.58133493  0.04362339     1.27400
Ni25       Ni  0.49800060  0.53777135  0.48131169     1.26100
H26         H  0.03274102  0.45488999  0.46622471     0.40600
O27         O  0.47382293  0.37049849  0.23688788    -0.79300
O28         O  0.48993805  0.61145621  0.23655205    -0.64000
O29         O  0.00788509  0.46337974  0.22743593    -1.10600
C30         C  0.00224050  0.49655447  0.33276930     1.07600
O31         O  0.02617160  0.62956572  0.26485581    -0.77200
O32         O  0.06410825  0.54697767  0.27359632    -0.64800
Ni33       Ni  0.48237678  0.41711692  0.20681648     1.34900
C34         C  0.07411128  0.49910434  0.26296111     0.86300
O35         O  0.50450330  0.53620826  0.18825443    -0.77800
O36         O  0.48937541  0.45644949  0.17319765    -0.88000
C37         C  0.00718732  0.64333268  0.24865887     0.85900
O38         O  0.43660148  0.45233891  0.22652011    -0.66200
O39         O  0.01247518  0.54143855  0.32741844    -0.85500
C40         C  0.42655185  0.50007883  0.23753364     0.86700
C41         C  0.49894787  0.50170640  0.16797318     1.08300
H42         H  0.46834702  0.54434120  0.28462856     0.40100
O43         O  0.49298166  0.53613724  0.27346165    -1.08200
O44         O  0.05273369  0.46369654  0.26221847    -0.64800
Ni45       Ni  0.00215168  0.46211628  0.26987820     1.26300
O46         O  0.44789213  0.53532694  0.23891987    -0.65100
O47         O  0.99579545  0.46267460  0.31266445    -0.77300
C48         C  0.49303848  0.35645054  0.25283521     0.86100
O49         O  0.01057808  0.38779774  0.26431654    -0.64500
Ni50       Ni  0.01850314  0.58176481  0.29427304     1.27400
Ni51       Ni  0.49845275  0.53710373  0.23104180     1.26100
H52         H  0.03258877  0.45531141  0.21634336     0.40600
O53         O  0.22383509  0.36951593  0.48615764    -0.79300
O54         O  0.23959023  0.61055890  0.48620379    -0.64000
O55         O  0.25819569  0.46232422  0.47670621    -1.10600
C56         C  0.25293370  0.49647604  0.08205641     1.07600
O57         O  0.27828694  0.62729996  0.01292698    -0.77200
O58         O  0.31527599  0.54567171  0.02383383    -0.64800
Ni59       Ni  0.23190954  0.41666967  0.45632846     1.34900
C60         C  0.32540069  0.49804017  0.01257588     0.86300
O61         O  0.25439505  0.53573660  0.43785886    -0.77800
O62         O  0.23848171  0.45650476  0.42287569    -0.88000
C63         C  0.25775410  0.64201272  0.49770291     0.85900
O64         O  0.18621478  0.45184741  0.47658999    -0.66200
O65         O  0.26213280  0.54195542  0.07694317    -0.85500
C66         C  0.17631564  0.49969466  0.48744332     0.86700
C67         C  0.24840979  0.50161961  0.41763350     1.08300
H68         H  0.21887051  0.54286542  0.03396110     0.40100
O69         O  0.24354068  0.53490223  0.02276876    -1.08200
O70         O  0.30414162  0.46282190  0.01086874    -0.64800
Ni71       Ni  0.25361967  0.46095590  0.01888600     1.26300
O72         O  0.19777521  0.53483002  0.48844802    -0.65100
O73         O  0.24780430  0.46173772  0.06166118    -0.77300
C74         C  0.24409344  0.35516450  0.00177381     0.86100
O75         O  0.26227759  0.38665047  0.01327691    -0.64500
Ni76       Ni  0.26946621  0.58104406  0.04322005     1.27400
Ni77       Ni  0.24829177  0.53634003  0.48058464     1.26100
H78         H  0.28282231  0.45415161  0.46547354     0.40600
O79         O  0.22251473  0.37178089  0.23697707    -0.79300
O80         O  0.23943017  0.61220446  0.23657669    -0.64000
O81         O  0.25757421  0.46379049  0.22685552    -1.10600
C82         C  0.25306342  0.49706763  0.33204687     1.07600
O83         O  0.27779594  0.62859617  0.26324172    -0.77200
O84         O  0.31504216  0.54637801  0.27318990    -0.64800
Ni85       Ni  0.23122316  0.41799390  0.20667649     1.34900
C86         C  0.32489874  0.49864807  0.26203047     0.86300
O87         O  0.25301028  0.53720256  0.18815390    -0.77800
O88         O  0.23832923  0.45714857  0.17298863    -0.88000
C89         C  0.25817291  0.64318490  0.24774654     0.85900
O90         O  0.18561746  0.45365120  0.22639639    -0.66200
O91         O  0.26274087  0.54233209  0.32687149    -0.85500
C92         C  0.17565464  0.50126690  0.23776510     0.86700
C93         C  0.24759954  0.50258192  0.16783666     1.08300
H94         H  0.21837418  0.54462845  0.28457557     0.40100
O95         O  0.24294742  0.53641281  0.27314004    -1.08200
O96         O  0.30338817  0.46362572  0.26074611    -0.64800
Ni97       Ni  0.25272762  0.46236883  0.26913169     1.26300
O98         O  0.19705613  0.53636984  0.23931643    -0.65100
O99         O  0.24722543  0.46284226  0.31178433    -0.77300
C100        C  0.24234619  0.35703132  0.25224392     0.86100
O101        O  0.26106747  0.38802444  0.26339933    -0.64500
Ni102      Ni  0.26947353  0.58191892  0.29331375     1.27400
Ni103      Ni  0.24770965  0.53781040  0.23084392     1.26100
H104        H  0.28214972  0.45567610  0.21546827     0.40600
O105        O  0.48315567  0.99984277  0.45902634    -0.72900
O106        O  0.46384660  0.00215571  0.04444639    -0.72900
O107        O  0.47202010  0.07577214  0.00700031    -0.72900
O108        O  0.47662466  0.92553212  0.99579658    -0.73000
O109        O  0.03406249  0.92188600  0.48642787    -0.72900
O110        O  0.03017710  0.07223525  0.49724680    -0.72900
O111        O  0.03440720  0.99754329  0.03208925    -0.72900
O112        O  0.03091584  0.99599343  0.45116018    -0.72900
Ni113      Ni  0.47225489  0.00076255  0.00155423     1.25400
Ni114      Ni  0.03430621  0.99690985  0.49127006     1.25400
C115        C  0.00088047  0.99796470  0.44582079     0.89300
C116        C  0.00531158  0.99957240  0.05304100     0.89300
C117        C  0.00060387  0.09813219  0.00641735     0.89300
C118        C  0.00512355  0.89944330  0.49250443     0.89500
O119        O  0.02616902  0.07383814  0.24965156    -0.72900
O120        O  0.03149313  0.92359574  0.23955741    -0.72900
O121        O  0.03129922  0.99647514  0.20303025    -0.72900
O122        O  0.02649886  0.00101498  0.28605861    -0.73000
O123        O  0.48286059  0.00274609  0.30003754    -0.72900
O124        O  0.46110585  0.00080197  0.22424655    -0.72900
O125        O  0.47403121  0.92667893  0.25713005    -0.72900
O126        O  0.46982451  0.07686288  0.26736924    -0.72900
Ni127      Ni  0.03100220  0.99864181  0.24413943     1.25400
Ni128      Ni  0.46988047  0.00191286  0.26306745     1.25400
C129        C  0.49798611  0.09929403  0.25686858     0.89300
C130        C  0.50362697  0.90009847  0.24365535     0.89300
C131        C  0.48660178  0.99866002  0.19990517     0.89300
C132        C  0.51521335  0.00078760  0.30043603     0.89500
O133        O  0.22888131  0.99847843  0.46001094    -0.72900
O134        O  0.21097639  0.00254972  0.04534929    -0.72900
O135        O  0.21870428  0.07543578  0.00756883    -0.72900
O136        O  0.22262965  0.92516282  0.99726574    -0.73000
O137        O  0.27899485  0.92217287  0.49294930    -0.72900
O138        O  0.27674441  0.07198323  0.00260930    -0.72900
O139        O  0.26905856  0.99910963  0.04025294    -0.72900
O140        O  0.28690046  0.99509812  0.45517653    -0.72900
Ni141      Ni  0.21855932  0.00042832  0.00259176     1.25400
Ni142      Ni  0.27911792  0.99711223  0.49794422     1.25400
C143        C  0.26101572  0.99639512  0.44363725     0.89300
C144        C  0.23697997  0.00136150  0.05674832     0.89300
C145        C  0.24712258  0.09819534  0.00664179     0.89300
C146        C  0.25062142  0.89935802  0.49382896     0.89500
O147        O  0.21321865  0.00062119  0.22234637    -0.72900
O148        O  0.23117841  0.00314877  0.29932723    -0.72900
O149        O  0.22006560  0.07701551  0.26585446    -0.72900
O150        O  0.22446482  0.92679922  0.25578349    -0.73000
O151        O  0.28264558  0.92284313  0.23338396    -0.72900
O152        O  0.27823998  0.07308131  0.24343543    -0.72900
O153        O  0.28938766  0.99924331  0.27702673    -0.72900
O154        O  0.27140236  0.99668303  0.19990993    -0.72900
Ni155      Ni  0.22015540  0.00203718  0.26164158     1.25400
Ni156      Ni  0.28252201  0.99782980  0.23762095     1.25400
C157        C  0.23940466  0.99857029  0.19859327     0.89300
C158        C  0.26311607  0.00122390  0.30074538     0.89300
C159        C  0.24840331  0.09953548  0.25608358     0.89300
C160        C  0.25429318  0.90033564  0.24311528     0.89500
C161        C  0.26930646  0.00056903  0.32968109    -0.16900
C162        C  0.27170019  0.99910561  0.35486035     0.07100
C163        C  0.27115451  0.99719660  0.38518240     0.09000
C164        C  0.26790794  0.99617217  0.41165704    -0.17800
C165        C  0.23038442  0.00206226  0.08870926    -0.16900
C166        C  0.22811352  0.00155302  0.11505143     0.07100
C167        C  0.22923108  0.00016568  0.14499344     0.09000
C168        C  0.23285099  0.99901434  0.16980197    -0.17800
C169        C  0.99966090  0.99850153  0.41578428    -0.16900
C170        C  0.52630881  0.99849009  0.38434843     0.07100
C171        C  0.52623944  0.99957660  0.35396807     0.09000
C172        C  0.52286029  0.00043316  0.32896412    -0.17800
C173        C  0.00633076  0.99931814  0.08318493    -0.16900
C174        C  0.47803485  0.00082039  0.11527578     0.07100
C175        C  0.47683100  0.99984082  0.14595217     0.09000
C176        C  0.47925793  0.99903417  0.17125617    -0.17800
C177        C  0.24659339  0.15572730  0.25885472    -0.16900
C178        C  0.24517260  0.20272814  0.25989397     0.07100
C179        C  0.24377663  0.25737269  0.25945727     0.09000
C180        C  0.24291787  0.30341848  0.25732541    -0.17800
C181        C  0.25796767  0.69665663  0.24237651    -0.16900
C182        C  0.25768641  0.74260717  0.24000233     0.07100
C183        C  0.25702115  0.79717469  0.23933556     0.09000
C184        C  0.25602166  0.84414721  0.24028764    -0.17800
C185        C  0.24590471  0.15437816  0.00959178    -0.16900
C186        C  0.24527175  0.20134609  0.01058099     0.07100
C187        C  0.24481750  0.25588460  0.00981963     0.09000
C188        C  0.24451060  0.30177791  0.00729837    -0.17800
C189        C  0.25672788  0.69560780  0.49264998    -0.16900
C190        C  0.25535958  0.74159132  0.49042465     0.07100
C191        C  0.25351186  0.79618545  0.48988740     0.09000
C192        C  0.25202371  0.84318118  0.49094205    -0.17800
C193        C  0.24821599  0.48290368  0.36306855    -0.15300
C194        C  0.25332210  0.51575670  0.38659935    -0.30000
H195        H  0.24006023  0.44402086  0.36660010     0.14200
H196        H  0.26149805  0.55463007  0.38306579     0.14700
C197        C  0.24790003  0.48279515  0.11319368    -0.14900
C198        C  0.25245412  0.51632307  0.13673247    -0.30000
H199        H  0.24020190  0.44372728  0.11678358     0.14200
H200        H  0.26017272  0.55537821  0.13313326     0.14700
C201        C  0.49345886  0.30304993  0.25827046    -0.16900
C202        C  0.49403272  0.25709969  0.26060948     0.07100
C203        C  0.49505860  0.20249702  0.26110086     0.09000
C204        C  0.49626313  0.15548758  0.25991884    -0.17800
C205        C  0.50532393  0.84389343  0.24082966    -0.16900
C206        C  0.00565595  0.79728468  0.24024145     0.07100
C207        C  0.00632670  0.74271491  0.24088080     0.09000
C208        C  0.00670370  0.69676352  0.24324526    -0.17800
C209        C  0.36319478  0.48227843  0.24979039    -0.14900
C210        C  0.38823148  0.51627219  0.24957108    -0.30000
H211        H  0.37093115  0.44111943  0.24064871     0.14200
H212        H  0.38046652  0.55742323  0.25871286     0.14700
C213        C  0.11241841  0.48304275  0.25066672    -0.14900
C214        C  0.13734199  0.51735571  0.24999498    -0.30000
H215        H  0.12026324  0.44180322  0.24183579     0.14200
H216        H  0.12949938  0.55856550  0.25891640     0.14700
C217        C  0.49539806  0.30238895  0.00727442    -0.16900
C218        C  0.49627089  0.25650613  0.00979018     0.07100
C219        C  0.49750330  0.20198574  0.01061611     0.09000
C220        C  0.99897987  0.15437330  0.00952144    -0.17800
C221        C  0.00762293  0.69604667  0.49230108    -0.16900
C222        C  0.00739418  0.74185380  0.48959438     0.07100
C223        C  0.00704023  0.79630867  0.48859298     0.09000
C224        C  0.00644272  0.84324964  0.48946711    -0.17800
C225        C  0.38785879  0.51637088  0.50039389    -0.14900
C226        C  0.36372175  0.48195709  0.00061822    -0.30000
H227        H  0.38077561  0.55723729  0.00959894     0.14200
H228        H  0.37084511  0.44101970  0.49154877     0.14700
C229        C  0.13806890  0.51623775  0.49972775    -0.14900
C230        C  0.11364623  0.48171414  0.00043373    -0.30000
H231        H  0.13044920  0.55756600  0.50844753     0.14200
H232        H  0.12131743  0.44041617  0.99165944     0.14700
C233        C  0.99750075  0.48260174  0.36382035    -0.14900
C234        C  0.50237461  0.51729517  0.38737831    -0.30000
H235        H  0.98884881  0.44405194  0.36760556     0.14200
H236        H  0.51060033  0.55608284  0.38367869     0.14700
C237        C  0.50392129  0.51544933  0.13686124    -0.14900
C238        C  0.99843108  0.48307015  0.11363562    -0.30000
H239        H  0.01179410  0.55501977  0.13338257     0.14200
H240        H  0.49083158  0.44336945  0.11702251     0.14700
O241        O  0.47528368  0.36966141  0.98599207    -0.79300
O242        O  0.49010047  0.61167260  0.98700836    -0.64000
O243        O  0.00874915  0.46243336  0.97717450    -1.10600
C244        C  0.00264791  0.49751182  0.58276712     1.07600
O245        O  0.02729356  0.62876033  0.51381576    -0.77200
O246        O  0.06478414  0.54667497  0.52376390    -0.64800
Ni247      Ni  0.48267470  0.41759987  0.95662122     1.34900
C248        C  0.07468550  0.49882974  0.51289755     0.86300
O249        O  0.50455784  0.53714930  0.93847753    -0.77800
O250        O  0.48845261  0.45803632  0.92356420    -0.88000
C251        C  0.00874070  0.64214207  0.99772561     0.85900
O252        O  0.43700386  0.45224385  0.97736403    -0.66200
O253        O  0.01242809  0.54262228  0.57741943    -0.85500
C254        C  0.42693770  0.50003898  0.98823043     0.86700
C255        C  0.49824172  0.50318316  0.91833787     1.08300
H256        H  0.46815953  0.54422832  0.53493467     0.40100
O257        O  0.49278901  0.53625395  0.52365200    -1.08200
O258        O  0.05323207  0.46368365  0.51185810    -0.64800
Ni259      Ni  0.00269453  0.46210667  0.51985481     1.26300
O260        O  0.44824891  0.53545076  0.98920011    -0.65100
O261        O  0.99676270  0.46309976  0.56261464    -0.77300
C262        C  0.49356796  0.35645476  0.50229922     0.86100
O263        O  0.01130123  0.38781958  0.51441218    -0.64500
Ni264      Ni  0.01908863  0.58200253  0.54383098     1.27400
Ni265      Ni  0.49881119  0.53735710  0.98116097     1.26100
H266        H  0.03339170  0.45424990  0.96594578     0.40600
O267        O  0.47318651  0.37093710  0.73708516    -0.79300
O268        O  0.48931529  0.61181348  0.73678736    -0.64000
O269        O  0.00744084  0.46392054  0.72756062    -1.10600
C270        C  0.00198364  0.49670532  0.83281200     1.07600
O271        O  0.02552955  0.63020658  0.76518338    -0.77200
O272        O  0.06366322  0.54742430  0.77352274    -0.64800
Ni273      Ni  0.48181517  0.41749998  0.70698668     1.34900
C274        C  0.07363483  0.49950554  0.76299990     0.86300
O275        O  0.50382249  0.53663476  0.68846697    -0.77800
O276        O  0.48885222  0.45680602  0.67334975    -0.88000
C277        C  0.00658179  0.64391071  0.74894244     0.85900
O278        O  0.43604539  0.45274248  0.72664699    -0.66200
O279        O  0.01234524  0.54151744  0.82744291    -0.85500
C280        C  0.42599135  0.50044628  0.73774514     0.86700
C281        C  0.49832429  0.50212366  0.66815901     1.08300
H282        H  0.46789751  0.54473417  0.78486312     0.40100
O283        O  0.49251325  0.53648730  0.77365192    -1.08200
O284        O  0.05223819  0.46409653  0.76238755    -0.64800
Ni285      Ni  0.00166764  0.46255536  0.76999582     1.26300
O286        O  0.44732052  0.53567685  0.73921033    -0.65100
O287        O  0.99528096  0.46300564  0.81276498    -0.77300
C288        C  0.49235132  0.35684379  0.75306105     0.86100
O289        O  0.01010923  0.38824317  0.76439276    -0.64500
Ni290      Ni  0.01810119  0.58210997  0.79443398     1.27400
Ni291      Ni  0.49787936  0.53747696  0.73124576     1.26100
H292        H  0.03215190  0.45589597  0.71647976     0.40600
O293        O  0.22483552  0.36910146  0.98581824    -0.79300
O294        O  0.24023730  0.61042260  0.98609172    -0.64000
O295        O  0.25892146  0.46216256  0.97648010    -1.10600
C296        C  0.25226369  0.49659926  0.58223029     1.07600
O297        O  0.27738385  0.62775063  0.51326215    -0.77200
O298        O  0.31453929  0.54591022  0.52381106    -0.64800
Ni299      Ni  0.23264585  0.41647292  0.95611458     1.34900
C300        C  0.32464215  0.49822408  0.51267483     0.86300
O301        O  0.25496318  0.53566297  0.93770329    -0.77800
O302        O  0.23892704  0.45649597  0.92277286    -0.88000
C303        C  0.25858601  0.64173483  0.99746923     0.85900
O304        O  0.18694782  0.45145124  0.97654372    -0.66200
O305        O  0.26164119  0.54197103  0.57705834    -0.85500
C306        C  0.17699754  0.49930056  0.98735046     0.86700
C307        C  0.24882406  0.50161680  0.91752470     1.08300
H308        H  0.21813811  0.54315623  0.53414378     0.40100
O309        O  0.24281073  0.53513425  0.52296768    -1.08200
O310        O  0.30336260  0.46295590  0.51115281    -0.64800
Ni311      Ni  0.25282292  0.46115949  0.51911797     1.26300
O312        O  0.19841473  0.53453331  0.98829726    -0.65100
O313        O  0.24692810  0.46195813  0.56189494    -0.77300
C314        C  0.24308546  0.35545075  0.50208967     0.86100
O315        O  0.26138126  0.38682618  0.51353709    -0.64500
Ni316      Ni  0.26876953  0.58122707  0.54341647     1.27400
Ni317      Ni  0.24894478  0.53617945  0.98040903     1.26100
H318        H  0.28354698  0.45404620  0.96522197     0.40600
O319        O  0.22201877  0.37196058  0.73713427    -0.79300
O320        O  0.23889047  0.61235256  0.73665505    -0.64000
O321        O  0.25706159  0.46397121  0.72698680    -1.10600
C322        C  0.25269884  0.49728387  0.83212899     1.07600
O323        O  0.27717085  0.62892234  0.76338183    -0.77200
O324        O  0.31450080  0.54669847  0.77324606    -0.64800
Ni325      Ni  0.23069102  0.41816992  0.70683211     1.34900
C326        C  0.32436937  0.49895560  0.76213052     0.86300
O327        O  0.25253777  0.53733590  0.68826317    -0.77800
O328        O  0.23775462  0.45732454  0.67314771    -0.88000
C329        C  0.25757192  0.64340585  0.74784255     0.85900
O330        O  0.18509576  0.45383322  0.72656852    -0.66200
O331        O  0.26233523  0.54255466  0.82693846    -0.85500
C332        C  0.17515547  0.50147982  0.73787005     0.86700
C333        C  0.24707036  0.50272709  0.66797101     1.08300
H334        H  0.21783607  0.54483463  0.78468914     0.40100
O335        O  0.24241541  0.53662771  0.77325957    -1.08200
O336        O  0.30287667  0.46389866  0.76087332    -0.64800
Ni337      Ni  0.25222417  0.46258173  0.76926189     1.26300
O338        O  0.19656793  0.53656575  0.73939118    -0.65100
O339        O  0.24676460  0.46307514  0.81190804    -0.77300
C340        C  0.24187494  0.35721987  0.75238296     0.86100
O341        O  0.26059272  0.38823270  0.76353235    -0.64500
Ni342      Ni  0.26893766  0.58218060  0.79341758     1.27400
Ni343      Ni  0.24720455  0.53798350  0.73095432     1.26100
H344        H  0.28163267  0.45584350  0.71559578     0.40600
O345        O  0.48476493  0.99919272  0.95843976    -0.72900
O346        O  0.46126082  0.00306301  0.54511543    -0.72900
O347        O  0.46989012  0.07656560  0.50758402    -0.72900
O348        O  0.47457372  0.92630466  0.49647324    -0.73000
O349        O  0.03485027  0.92136466  0.98604296    -0.72900
O350        O  0.03081787  0.07172617  0.99695593    -0.72900
O351        O  0.03341426  0.99812030  0.53249965    -0.72900
O352        O  0.03134776  0.99557364  0.95090254    -0.72900
Ni353      Ni  0.47016318  0.00154201  0.50216572     1.25400
Ni354      Ni  0.03501846  0.99640354  0.99092458     1.25400
C355        C  0.00123032  0.99754168  0.94571332     0.89300
C356        C  0.00422441  0.00021009  0.55334845     0.89300
C357        C  0.99998098  0.09869856  0.50658056     0.89300
C358        C  0.00594356  0.89885581  0.99224026     0.89500
O359        O  0.02554516  0.07438466  0.74972488    -0.72900
O360        O  0.03091380  0.92414382  0.73961707    -0.72900
O361        O  0.03042499  0.99705161  0.70315620    -0.72900
O362        O  0.02616905  0.00155041  0.78607312    -0.73000
O363        O  0.48216478  0.00303631  0.80025224    -0.72900
O364        O  0.45901280  0.00142408  0.72507403    -0.72900
O365        O  0.47265319  0.92710984  0.75758699    -0.72900
O366        O  0.46842632  0.07732311  0.76796186    -0.72900
Ni367      Ni  0.03040190  0.99919313  0.74419825     1.25400
Ni368      Ni  0.46849366  0.00235990  0.76361140     1.25400
C369        C  0.49650001  0.09975819  0.75718111     0.89300
C370        C  0.50217438  0.90054223  0.74380215     0.89300
C371        C  0.48419861  0.99936263  0.70052938     0.89300
C372        C  0.51465502  0.00105254  0.80024608     0.89500
O373        O  0.23029368  0.99811053  0.95953533    -0.72900
O374        O  0.20913877  0.00288305  0.54585621    -0.72900
O375        O  0.21710972  0.07580135  0.50807213    -0.72900
O376        O  0.22099369  0.92550855  0.49773918    -0.73000
O377        O  0.28067659  0.92183263  0.99226847    -0.72900
O378        O  0.27510178  0.07230910  0.50332714    -0.72900
O379        O  0.26717529  0.99940975  0.54096999    -0.72900
O380        O  0.28836018  0.99474889  0.95448629    -0.72900
Ni381      Ni  0.21693916  0.00078432  0.50307618     1.25400
Ni382      Ni  0.28078842  0.99678301  0.99723280     1.25400
C383        C  0.26238143  0.99603936  0.94306070     0.89300
C384        C  0.23505067  0.00166266  0.55736395     0.89300
C385        C  0.24551781  0.09854272  0.50724287     0.89300
C386        C  0.25227834  0.89901546  0.99326999     0.89500
O387        O  0.21195591  0.00093405  0.72290758    -0.72900
O388        O  0.23095221  0.00329084  0.79947506    -0.72900
O389        O  0.21939814  0.07725402  0.76620877    -0.72900
O390        O  0.22364587  0.92703639  0.75613208    -0.73000
O391        O  0.28172258  0.92295306  0.73326535    -0.72900
O392        O  0.27746624  0.07317131  0.74331527    -0.72900
O393        O  0.28905676  0.99925237  0.77669896    -0.72900
O394        O  0.27003564  0.99684971  0.70000295    -0.72900
Ni395      Ni  0.21941389  0.00227758  0.76201294     1.25400
Ni396      Ni  0.28166816  0.99792155  0.73748646     1.25400
C397        C  0.23792536  0.99881330  0.69898593     0.89300
C398        C  0.26300736  0.00126095  0.80058681     0.89300
C399        C  0.24770760  0.09970040  0.75620193     0.89300
C400        C  0.25340143  0.90051236  0.74322103     0.89500
C401        C  0.26959225  0.00050384  0.82936497    -0.16900
C402        C  0.27232057  0.99894109  0.85443391     0.07100
C403        C  0.27212318  0.99692608  0.88466547     0.09000
C404        C  0.26910228  0.99584071  0.91109880    -0.17800
C405        C  0.22830328  0.00232803  0.58933337    -0.16900
C406        C  0.22599095  0.00179356  0.61567887     0.07100
C407        C  0.22719278  0.00039619  0.64559479     0.09000
C408        C  0.23100662  0.99925359  0.67033787    -0.17800
C409        C  0.99981516  0.99830008  0.91574500    -0.16900
C410        C  0.52711217  0.99829235  0.88365766     0.07100
C411        C  0.52660805  0.99960308  0.85340604     0.09000
C412        C  0.52282046  0.00059413  0.82854949    -0.17800
C413        C  0.00504921  0.99999500  0.58354145    -0.16900
C414        C  0.47479402  0.00189997  0.61623505     0.07100
C415        C  0.47367810  0.00084550  0.64688205     0.09000
C416        C  0.47635871  0.99991521  0.67209700    -0.17800
C417        C  0.24595672  0.15589531  0.75897941    -0.16900
C418        C  0.24460910  0.20289783  0.76001848     0.07100
C419        C  0.24329182  0.25754708  0.75958263     0.09000
C420        C  0.24246532  0.30359869  0.75745698    -0.17800
C421        C  0.25730290  0.69685438  0.74244962    -0.16900
C422        C  0.25692745  0.74279288  0.74005728     0.07100
C423        C  0.25615085  0.79735572  0.73939327     0.09000
C424        C  0.25510009  0.84432946  0.74036813    -0.17800
C425        C  0.24434905  0.15472612  0.51014796    -0.16900
C426        C  0.24381648  0.20168150  0.51107175     0.07100
C427        C  0.24351470  0.25620040  0.51023387     0.09000
C428        C  0.24334743  0.30207654  0.50766157    -0.17800
C429        C  0.25773908  0.69531427  0.99236493    -0.16900
C430        C  0.25659261  0.74128472  0.99008318     0.07100
C431        C  0.25499938  0.79586148  0.98946179     0.09000
C432        C  0.25365541  0.84284308  0.99044280    -0.17800
C433        C  0.24804815  0.48309366  0.86311558    -0.15300
C434        C  0.25349852  0.51582377  0.88653885    -0.30000
H435        H  0.23979944  0.44427439  0.86670136     0.14200
H436        H  0.26177315  0.55463116  0.88295178     0.14700
C437        C  0.24725923  0.48293917  0.61336480    -0.14900
C438        C  0.25191620  0.51644133  0.63686638    -0.30000
H439        H  0.23947090  0.44392443  0.61699004     0.14200
H440        H  0.25970674  0.55545349  0.63323671     0.14700
C441        C  0.49258823  0.30348883  0.75858913    -0.16900
C442        C  0.49294589  0.25755948  0.76098051     0.07100
C443        C  0.49372670  0.20296712  0.76149641     0.09000
C444        C  0.49479648  0.15595779  0.76029815    -0.17800
C445        C  0.50393465  0.84432805  0.74098416    -0.16900
C446        C  0.00506359  0.79783512  0.74045855     0.07100
C447        C  0.00570199  0.74327951  0.74113904     0.09000
C448        C  0.00607039  0.69733919  0.74352839    -0.17800
C449        C  0.36266120  0.48261407  0.74991367    -0.14900
C450        C  0.38767622  0.51661325  0.74977803    -0.30000
H451        H  0.37041301  0.44147272  0.74073159     0.14200
H452        H  0.37989737  0.55774150  0.75897612     0.14700
C453        C  0.11192092  0.48337516  0.75070981    -0.14900
C454        C  0.13686081  0.51764154  0.75005032    -0.30000
H455        H  0.11973701  0.44211738  0.74191345     0.14200
H456        H  0.12904571  0.55886669  0.75894660     0.14700
C457        C  0.49407630  0.30310699  0.50784369    -0.16900
C458        C  0.49463048  0.25727833  0.51048509     0.07100
C459        C  0.49551338  0.20279524  0.51140150     0.09000
C460        C  0.99841039  0.15494143  0.50967019    -0.17800
C461        C  0.00850932  0.69542844  0.99202290    -0.16900
C462        C  0.00832066  0.74123050  0.98929152     0.07100
C463        C  0.00796173  0.79569504  0.98828944     0.09000
C464        C  0.00732561  0.84264673  0.98917816    -0.17800
C465        C  0.38863290  0.51609906  0.00047539    -0.14900
C466        C  0.36296532  0.48215958  0.50065409    -0.30000
H467        H  0.37997899  0.55752467  0.50945788     0.14200
H468        H  0.37158629  0.44084652  0.99141890     0.14700
C469        C  0.13873392  0.51571439  0.99962714    -0.14900
C470        C  0.11293653  0.48230488  0.50062776    -0.30000
H471        H  0.13106059  0.55701859  0.00838288     0.14200
H472        H  0.12056123  0.44098067  0.49190339     0.14700
C473        C  0.99741571  0.48262029  0.86380770    -0.14900
C474        C  0.50266409  0.51727476  0.88736165    -0.30000
H475        H  0.98859240  0.44416809  0.86762552     0.14200
H476        H  0.51101006  0.55599259  0.88362747     0.14700
C477        C  0.50324934  0.51592954  0.63705512    -0.14900
C478        C  0.99777781  0.48383318  0.61387297    -0.30000
H479        H  0.01122791  0.55575873  0.63358263     0.14200
H480        H  0.49008369  0.44391460  0.61721543     0.14700
O481        O  0.97381107  0.37012559  0.48706044    -0.79300
O482        O  0.98960792  0.61130704  0.48662046    -0.64000
O483        O  0.50817915  0.46374398  0.47721287    -1.10600
C484        C  0.50371940  0.49623285  0.08235191     1.07600
O485        O  0.52780481  0.62887128  0.01421862    -0.77200
O486        O  0.56554645  0.54657073  0.02366818    -0.64800
Ni487      Ni  0.98196781  0.41702090  0.45708592     1.34900
C488        C  0.57556922  0.49882850  0.01263812     0.86300
O489        O  0.00421973  0.53606138  0.43838725    -0.77800
O490        O  0.98860103  0.45653353  0.42353466    -0.88000
C491        C  0.50743979  0.64352706  0.49857379     0.85900
O492        O  0.93624240  0.45219126  0.47707177    -0.66200
O493        O  0.51336863  0.54148925  0.07720432    -0.85500
C494        C  0.92623470  0.50003540  0.48783748     0.86700
C495        C  0.99836542  0.50167063  0.41820881     1.08300
H496        H  0.96885672  0.54366942  0.03455884     0.40100
O497        O  0.99348815  0.53546790  0.02334725    -1.08200
O498        O  0.55423508  0.46357706  0.01138377    -0.64800
Ni499      Ni  0.50372570  0.46172771  0.01936051     1.26300
O500        O  0.94760899  0.53529596  0.48902049    -0.65100
O501        O  0.49788783  0.46202405  0.06207094    -0.77300
C502        C  0.99388472  0.35555340  0.00260011     0.86100
O503        O  0.51257783  0.38747787  0.01353817    -0.64500
Ni504      Ni  0.51980892  0.58150576  0.04391318     1.27400
Ni505      Ni  0.99817068  0.53701102  0.48116336     1.26100
H506        H  0.53282551  0.45580085  0.46594426     0.40600
O507        O  0.97332673  0.37061121  0.23667633    -0.79300
O508        O  0.98930111  0.61171843  0.23688407    -0.64000
O509        O  0.50837317  0.46311149  0.22731416    -1.10600
C510        C  0.50222373  0.49773014  0.33283884     1.07600
O511        O  0.52777085  0.62844130  0.26364050    -0.77200
O512        O  0.56483440  0.54661792  0.27409327    -0.64800
Ni513      Ni  0.98196756  0.41749912  0.20677609     1.34900
C514        C  0.57479506  0.49883776  0.26313878     0.86300
O515        O  0.00410074  0.53676434  0.18850625    -0.77800
O516        O  0.98894108  0.45712309  0.17330429    -0.88000
C517        C  0.50830767  0.64275870  0.24796013     0.85900
O518        O  0.93624746  0.45257933  0.22658872    -0.66200
O519        O  0.51199059  0.54286815  0.32752890    -0.85500
C520        C  0.92614549  0.50024127  0.23770989     0.86700
C521        C  0.99854449  0.50239276  0.16816237     1.08300
H522        H  0.96766371  0.54436713  0.28490672     0.40100
O523        O  0.99230466  0.53617171  0.27375626    -1.08200
O524        O  0.55337210  0.46366026  0.26194449    -0.64800
Ni525      Ni  0.50280163  0.46216743  0.26977483     1.26300
O526        O  0.94740389  0.53559045  0.23908530    -0.65100
O527        O  0.49661468  0.46319679  0.31259518    -0.77300
C528        C  0.99231122  0.35652477  0.25278648     0.86100
O529        O  0.51123509  0.38786286  0.26436193    -0.64500
Ni530      Ni  0.51911964  0.58204858  0.29383171     1.27400
Ni531      Ni  0.99792538  0.53740124  0.23130492     1.26100
H532        H  0.53305900  0.45499007  0.21617683     0.40600
O533        O  0.72388543  0.37003359  0.48603006    -0.79300
O534        O  0.73984047  0.61141999  0.48622543    -0.64000
O535        O  0.75819314  0.46310499  0.47681500    -1.10600
C536        C  0.75332001  0.49626344  0.08195807     1.07600
O537        O  0.77747982  0.62907769  0.01388386    -0.77200
O538        O  0.81539627  0.54632747  0.02277745    -0.64800
Ni539      Ni  0.73178693  0.41755974  0.45645047     1.34900
C540        C  0.82528642  0.49837306  0.01225379     0.86300
O541        O  0.75456577  0.53649882  0.43788053    -0.77800
O542        O  0.73802255  0.45758403  0.42318505    -0.88000
C543        C  0.75755975  0.64315237  0.49809208     0.85900
O544        O  0.68620570  0.45271880  0.47696151    -0.66200
O545        O  0.76366402  0.54110126  0.07659372    -0.85500
C546        C  0.67634956  0.50064583  0.48759276     0.86700
C547        C  0.74817015  0.50248704  0.41779967     1.08300
H548        H  0.71883229  0.54406487  0.03409818     0.40100
O549        O  0.74348562  0.53578355  0.02292123    -1.08200
O550        O  0.80380891  0.46315100  0.01144185    -0.64800
Ni551      Ni  0.75324017  0.46174113  0.01908325     1.26300
O552        O  0.69784491  0.53580290  0.48843569    -0.65100
O553        O  0.74687453  0.46240183  0.06185429    -0.77300
C554        C  0.74368963  0.35592615  0.00198322     0.86100
O555        O  0.76170308  0.38747561  0.01361550    -0.64500
Ni556      Ni  0.76979458  0.58133130  0.04337313     1.27400
Ni557      Ni  0.74839735  0.53716873  0.48066645     1.26100
H558        H  0.78282910  0.45481120  0.46565378     0.40600
O559        O  0.72339501  0.36986760  0.23636816    -0.79300
O560        O  0.74056423  0.61062567  0.23582155    -0.64000
O561        O  0.75817475  0.46223091  0.22674828    -1.10600
C562        C  0.75233948  0.49677213  0.33227285     1.07600
O563        O  0.77827010  0.62737353  0.26304378    -0.77200
O564        O  0.81477185  0.54541859  0.27385586    -0.64800
Ni565      Ni  0.73178259  0.41673812  0.20640913     1.34900
C566        C  0.82473997  0.49773210  0.26269415     0.86300
O567        O  0.75489387  0.53540629  0.18767044    -0.77800
O568        O  0.73861783  0.45633138  0.17286396    -0.88000
C569        C  0.75911482  0.64170856  0.24712385     0.85900
O570        O  0.68624159  0.45233599  0.22656197    -0.66200
O571        O  0.76179935  0.54207826  0.32705324    -0.85500
C572        C  0.67644861  0.50021985  0.23735744     0.86700
C573        C  0.74880975  0.50125791  0.16750582     1.08300
H574        H  0.71841340  0.54352890  0.28402360     0.40100
O575        O  0.74307998  0.53527095  0.27288189    -1.08200
O576        O  0.80336857  0.46259232  0.26116863    -0.64800
Ni577      Ni  0.75278069  0.46122447  0.26917495     1.26300
O578        O  0.69801807  0.53527884  0.23829826    -0.65100
O579        O  0.74688775  0.46215714  0.31197657    -0.77300
C580        C  0.74274078  0.35556630  0.25215834     0.86100
O581        O  0.76104581  0.38683556  0.26367677    -0.64500
Ni582      Ni  0.76918001  0.58113966  0.29332477     1.27400
Ni583      Ni  0.74865317  0.53628413  0.23044754     1.26100
H584        H  0.78278193  0.45380882  0.21553300     0.40600
O585        O  0.97175198  0.00006544  0.46670666    -0.72900
O586        O  0.97525946  0.00137858  0.04774619    -0.72900
O587        O  0.97174769  0.07553884  0.01265494    -0.72900
O588        O  0.97577278  0.92532981  0.00169429    -0.73000
O589        O  0.53229056  0.92342326  0.49282853    -0.72900
O590        O  0.52760038  0.07372820  0.50397359    -0.72900
O591        O  0.52168014  0.99917753  0.04028472    -0.72900
O592        O  0.54088778  0.99703064  0.45527592    -0.72900
Ni593      Ni  0.97161433  0.00056790  0.00776563     1.25400
Ni594      Ni  0.53201283  0.99848517  0.49825752     1.25400
C595        C  0.51548467  0.99816265  0.44311565     0.89300
C596        C  0.48941395  0.00096090  0.05639699     0.89300
C597        C  0.50021712  0.09880892  0.00659053     0.89300
C598        C  0.50413946  0.90035983  0.49303678     0.89500
O599        O  0.52757615  0.07275513  0.24328546    -0.72900
O600        O  0.53180278  0.92250453  0.23311683    -0.72900
O601        O  0.51890729  0.99660917  0.20037863    -0.72900
O602        O  0.54062895  0.99870102  0.27607146    -0.73000
O603        O  0.96741072  0.00364211  0.29809206    -0.72900
O604        O  0.97222595  0.99904556  0.21492835    -0.72900
O605        O  0.97248521  0.92624801  0.25150203    -0.72900
O606        O  0.96716098  0.07647807  0.26156479    -0.72900
Ni607      Ni  0.53178760  0.99749902  0.23733703     1.25400
Ni608      Ni  0.96766817  0.00144833  0.25694519     1.25400
C609        C  0.99581709  0.09963323  0.25718308     0.89300
C610        C  0.00282799  0.90044216  0.24405207     0.89300
C611        C  0.00253749  0.99718477  0.19553731     0.89300
C612        C  0.99624500  0.00286209  0.30548715     0.89500
O613        O  0.71578735  0.00113247  0.46876935    -0.72900
O614        O  0.72248902  0.00286771  0.04908257    -0.72900
O615        O  0.71766703  0.07703601  0.01421961    -0.72900
O616        O  0.72113854  0.92681281  0.00358521    -0.73000
O617        O  0.77957944  0.92266723  0.48662518    -0.72900
O618        O  0.77667721  0.07257961  0.99707149    -0.72900
O619        O  0.78155940  0.99844054  0.03183079    -0.72900
O620        O  0.77486838  0.99683917  0.45173783    -0.72900
Ni621      Ni  0.71724229  0.00209143  0.00952559     1.25400
Ni622      Ni  0.77995190  0.99759142  0.49130320     1.25400
C623        C  0.74438271  0.99907827  0.44725859     0.89300
C624        C  0.75305465  0.00066809  0.05343043     0.89300
C625        C  0.74661298  0.09927316  0.00721787     0.89300
C626        C  0.75067948  0.90033275  0.49364182     0.89500
O627        O  0.72556776  0.99716377  0.21306437    -0.72900
O628        O  0.71798943  0.00240615  0.29674243    -0.72900
O629        O  0.71923583  0.07489371  0.25976695    -0.72900
O630        O  0.72443882  0.92462460  0.24994953    -0.73000
O631        O  0.78334628  0.92202578  0.23935924    -0.72900
O632        O  0.77814562  0.07228045  0.24915114    -0.72900
O633        O  0.77696288  0.99984170  0.28615190    -0.72900
O634        O  0.78455224  0.99455475  0.20239101    -0.72900
Ni635      Ni  0.71967406  0.99984865  0.25526533     1.25400
Ni636      Ni  0.78289462  0.99706638  0.24388893     1.25400
C637        C  0.75622998  0.99524902  0.19420106     0.89300
C638        C  0.74625986  0.00195804  0.30500201     0.89300
C639        C  0.74786241  0.09807699  0.25593891     0.89300
C640        C  0.75473315  0.89883330  0.24308408     0.89500
C641        C  0.74352411  0.00335707  0.33610901    -0.16900
C642        C  0.74202329  0.00316705  0.36210878     0.07100
C643        C  0.74154821  0.00159845  0.39205264     0.09000
C644        C  0.74229159  0.00000448  0.41742745    -0.17800
C645        C  0.75550502  0.99996976  0.08316662    -0.16900
C646        C  0.75754909  0.99819753  0.10816811     0.07100
C647        C  0.75900653  0.99581659  0.13755268     0.09000
C648        C  0.75870690  0.99466818  0.16321030    -0.17800
C649        C  0.52306295  0.99793776  0.41094404    -0.16900
C650        C  0.99774410  0.00010003  0.39076064     0.07100
C651        C  0.99554024  0.00228406  0.36160963     0.09000
C652        C  0.99486070  0.00335362  0.33620882    -0.17800
C653        C  0.48195892  0.00126420  0.08857118    -0.16900
C654        C  0.00637732  0.99830731  0.10876559     0.07100
C655        C  0.00555874  0.99694363  0.13877696     0.09000
C656        C  0.00431234  0.99643185  0.16468321    -0.17800
C657        C  0.74603351  0.15428875  0.25883432    -0.16900
C658        C  0.74483039  0.20131289  0.25998503     0.07100
C659        C  0.74379785  0.25597839  0.25958513     0.09000
C660        C  0.74319867  0.30201581  0.25740033    -0.17800
C661        C  0.75910828  0.69502759  0.24150944    -0.16900
C662        C  0.75873665  0.74094915  0.23908624     0.07100
C663        C  0.75780482  0.79557337  0.23863657     0.09000
C664        C  0.75659755  0.84261213  0.23993881    -0.17800
C665        C  0.74535206  0.15542745  0.01020038    -0.16900
C666        C  0.74468215  0.20236640  0.01113851     0.07100
C667        C  0.74423132  0.25683971  0.01028091     0.09000
C668        C  0.74397612  0.30266346  0.00765373    -0.17800
C669        C  0.75655562  0.69668261  0.49290682    -0.16900
C670        C  0.75529556  0.74263340  0.49058537     0.07100
C671        C  0.75358263  0.79719281  0.48991331     0.09000
C672        C  0.75214668  0.84416291  0.49083806    -0.17800
C673        C  0.74738467  0.48317004  0.36341935    -0.15300
C674        C  0.75286285  0.51626865  0.38672194    -0.30000
H675        H  0.73904952  0.44446479  0.36719713     0.14200
H676        H  0.76129296  0.55492301  0.38292713     0.14700
C677        C  0.74839655  0.48228793  0.11301896    -0.14900
C678        C  0.75392809  0.51507164  0.13638954    -0.30000
H679        H  0.73973628  0.44371807  0.11674134     0.14200
H680        H  0.76256069  0.55365652  0.13266858     0.14700
C681        C  0.99235400  0.30323156  0.25839452    -0.16900
C682        C  0.99247660  0.25734676  0.26085869     0.07100
C683        C  0.99299819  0.20280087  0.26144310     0.09000
C684        C  0.99396398  0.15581303  0.26027496    -0.17800
C685        C  0.00465889  0.84425853  0.24122134    -0.16900
C686        C  0.50642576  0.79690156  0.23984582     0.07100
C687        C  0.50733140  0.74228455  0.24041297     0.09000
C688        C  0.50784832  0.69627948  0.24267530    -0.17800
C689        C  0.86303154  0.48165495  0.25063786    -0.14900
C690        C  0.88784674  0.51613286  0.24986660    -0.30000
H691        H  0.87094386  0.44039988  0.24190318     0.14200
H692        H  0.87991875  0.55738689  0.25859466     0.14700
C693        C  0.61309543  0.48252581  0.25092077    -0.14900
C694        C  0.63816752  0.51671405  0.24964906    -0.30000
H695        H  0.62080772  0.44114065  0.24246351     0.14200
H696        H  0.63047673  0.55811205  0.25807898     0.14700
C697        C  0.99469884  0.30206088  0.00794165    -0.16900
C698        C  0.99580593  0.25607711  0.01025202     0.07100
C699        C  0.99746587  0.20142010  0.01072285     0.09000
C700        C  0.49869503  0.15500903  0.00965073    -0.17800
C701        C  0.50700140  0.69692278  0.49304517    -0.16900
C702        C  0.50669023  0.74274789  0.49034558     0.07100
C703        C  0.50623971  0.79720736  0.48927787     0.09000
C704        C  0.50555000  0.84414982  0.49007549    -0.17800
C705        C  0.88792720  0.51634372  0.49975762    -0.14900
C706        C  0.86356436  0.48191211  0.00022925    -0.30000
H707        H  0.88088465  0.55726231  0.00836029     0.14200
H708        H  0.87064902  0.44095684  0.49159450     0.14700
C709        C  0.63809492  0.51716417  0.49975914    -0.14900
C710        C  0.61383236  0.48256826  0.00047846    -0.30000
H711        H  0.63040333  0.55850491  0.50838429     0.14200
H712        H  0.62157717  0.44125563  0.99179782     0.14700
C713        C  0.49713865  0.48414680  0.36399669    -0.14900
C714        C  0.00324151  0.51541063  0.38710026    -0.30000
H715        H  0.48891949  0.44536148  0.36771099     0.14200
H716        H  0.01183240  0.55399168  0.38331535     0.14700
C717        C  0.00357493  0.51622036  0.13705624    -0.14900
C718        C  0.49891243  0.48225310  0.11339774    -0.30000
H719        H  0.51197520  0.55434051  0.13322575     0.14200
H720        H  0.99018811  0.44428964  0.11733418     0.14700
O721        O  0.97454547  0.36942216  0.98669705    -0.79300
O722        O  0.99036953  0.61074834  0.98640482    -0.64000
O723        O  0.50894930  0.46330176  0.97700940    -1.10600
C724        C  0.50294935  0.49678060  0.58254285     1.07600
O725        O  0.52680478  0.62949428  0.51441546    -0.77200
O726        O  0.56474068  0.54717449  0.52371619    -0.64800
Ni727      Ni  0.98253432  0.41654449  0.95684735     1.34900
C728        C  0.57476802  0.49939214  0.51277724     0.86300
O729        O  0.00491996  0.53556896  0.93817721    -0.77800
O730        O  0.98895294  0.45625735  0.92339588    -0.88000
C731        C  0.50849919  0.64298833  0.99835224     0.85900
O732        O  0.93685876  0.45168534  0.97703043    -0.66200
O733        O  0.51267601  0.54198484  0.57734890    -0.85500
C734        C  0.92690193  0.49956973  0.98771781     0.86700
C735        C  0.99882534  0.50133404  0.91805313     1.08300
H736        H  0.96815147  0.54430485  0.53479620     0.40100
O737        O  0.99278207  0.53610128  0.52358316    -1.08200
O738        O  0.55342331  0.46410900  0.51163303    -0.64800
Ni739      Ni  0.50290320  0.46224486  0.51957505     1.26300
O740        O  0.94831372  0.53481153  0.98878611    -0.65100
O741        O  0.49701528  0.46260907  0.56229717    -0.77300
C742        C  0.99321988  0.35619728  0.50289270     0.86100
O743        O  0.51170241  0.38798666  0.51380364    -0.64500
Ni744      Ni  0.51898423  0.58203683  0.54406478     1.27400
Ni745      Ni  0.99888078  0.53644086  0.98093465     1.26100
H746        H  0.53357994  0.45532205  0.96571129     0.40600
O747        O  0.97292358  0.37106638  0.73669415    -0.79300
O748        O  0.98875647  0.61225611  0.73712384    -0.64000
O749        O  0.50781469  0.46348189  0.72749288    -1.10600
C750        C  0.50201927  0.49793396  0.83293113     1.07600
O751        O  0.52717162  0.62892459  0.76384363    -0.77200
O752        O  0.56443122  0.54689230  0.77398072    -0.64800
Ni753      Ni  0.98156803  0.41804485  0.70684913     1.34900
C754        C  0.57433931  0.49905404  0.76313142     0.86300
O755        O  0.00358904  0.53742432  0.68870298    -0.77800
O756        O  0.98851723  0.45776161  0.67343571    -0.88000
C757        C  0.50764431  0.64318238  0.74819643     0.85900
O758        O  0.93583430  0.45305997  0.72664352    -0.66200
O759        O  0.51188681  0.54300472  0.82757192    -0.85500
C760        C  0.92570392  0.50070218  0.73779259     0.86700
C761        C  0.99804532  0.50307955  0.66834110     1.08300
H762        H  0.96719278  0.54483854  0.78509717     0.40100
O763        O  0.99182669  0.53662701  0.77393144    -1.08200
O764        O  0.55287265  0.46389116  0.76208308    -0.64800
Ni765      Ni  0.50228797  0.46250067  0.76994894     1.26300
O766        O  0.94693154  0.53606469  0.73925175    -0.65100
O767        O  0.49616777  0.46351031  0.81275714    -0.77300
C768        C  0.99185972  0.35698201  0.75284009     0.86100
O769        O  0.51063714  0.38817353  0.76453757    -0.64500
Ni770      Ni  0.51876570  0.58232857  0.79394159     1.27400
Ni771      Ni  0.99743839  0.53794789  0.73148894     1.26100
H772        H  0.53249819  0.45537805  0.71634236     0.40600
O773        O  0.72476981  0.36963543  0.98572510    -0.79300
O774        O  0.74045157  0.61120740  0.98608082    -0.64000
O775        O  0.75891217  0.46288527  0.97662537    -1.10600
C776        C  0.75272203  0.49631784  0.58208956     1.07600
O777        O  0.77668783  0.62942885  0.51419518    -0.77200
O778        O  0.81469842  0.54659973  0.52289231    -0.64800
Ni779      Ni  0.73253439  0.41731488  0.95623694     1.34900
C780        C  0.82460949  0.49865228  0.51236348     0.86300
O781        O  0.75519203  0.53633212  0.93770049    -0.77800
O782        O  0.73858620  0.45745753  0.92303901    -0.88000
C783        C  0.75821134  0.64291219  0.99791895     0.85900
O784        O  0.68696348  0.45234411  0.97685567    -0.66200
O785        O  0.76307997  0.54114808  0.57673351    -0.85500
C786        C  0.67708001  0.50026848  0.98746335     0.86700
C787        C  0.74869470  0.50237210  0.91764896     1.08300
H788        H  0.71812957  0.54426500  0.53428614     0.40100
O789        O  0.74278683  0.53599238  0.52311369    -1.08200
O790        O  0.80314372  0.46339130  0.51158745    -0.64800
Ni791      Ni  0.75255911  0.46193098  0.51924842     1.26300
O792        O  0.69853673  0.53549141  0.98825871    -0.65100
O793        O  0.74621256  0.46251441  0.56199938    -0.77300
C794        C  0.74291795  0.35618364  0.50216768     0.86100
O795        O  0.76102979  0.38765598  0.51373586    -0.64500
Ni796      Ni  0.76909849  0.58151097  0.54358547     1.27400
Ni797      Ni  0.74907346  0.53695805  0.98048104     1.26100
H798        H  0.78355622  0.45461744  0.96547471     0.40600
O799        O  0.72302877  0.36997680  0.73650680    -0.79300
O800        O  0.74001036  0.61068948  0.73583244    -0.64000
O801        O  0.75776211  0.46234797  0.72681956    -1.10600
C802        C  0.75221189  0.49686498  0.83225888     1.07600
O803        O  0.77755974  0.62778280  0.76317330    -0.77200
O804        O  0.81434073  0.54579860  0.77365444    -0.64800
Ni805      Ni  0.73138754  0.41677227  0.70650706     1.34900
C806        C  0.82433172  0.49808102  0.76259630     0.86300
O807        O  0.75443353  0.53542879  0.68772704    -0.77800
O808        O  0.73821086  0.45630180  0.67293838    -0.88000
C809        C  0.75844822  0.64191478  0.74717123     0.85900
O810        O  0.68581247  0.45233574  0.72661100    -0.66200
O811        O  0.76169809  0.54213537  0.82699389    -0.85500
C812        C  0.67600942  0.50023209  0.73736926     0.86700
C813        C  0.74836733  0.50124332  0.66757418     1.08300
H814        H  0.71795588  0.54365540  0.78409484     0.40100
O815        O  0.74262466  0.53542293  0.77294487    -1.08200
O816        O  0.80298508  0.46285790  0.76121205    -0.64800
Ni817      Ni  0.75240368  0.46137808  0.76923796     1.26300
O818        O  0.69757125  0.53528974  0.73832869    -0.65100
O819        O  0.74656483  0.46231812  0.81202935    -0.77300
C820        C  0.74245865  0.35568907  0.75223249     0.86100
O821        O  0.76075647  0.38700162  0.76372930    -0.64500
Ni822      Ni  0.76875402  0.58133974  0.79334167     1.27400
Ni823      Ni  0.74818880  0.53637498  0.73050049     1.26100
H824        H  0.78236683  0.45395706  0.71559622     0.40600
O825        O  0.97219731  0.99950445  0.96669446    -0.72900
O826        O  0.97425466  0.00204933  0.54790631    -0.72900
O827        O  0.97109550  0.07616202  0.51270777    -0.72900
O828        O  0.97497174  0.92597094  0.50181631    -0.73000
O829        O  0.53446325  0.92252389  0.99165973    -0.72900
O830        O  0.52985111  0.07285318  0.00289891    -0.72900
O831        O  0.51897593  0.00019225  0.54143727    -0.72900
O832        O  0.54261774  0.99627302  0.95419770    -0.72900
Ni833      Ni  0.97088821  0.00120049  0.50784318     1.25400
Ni834      Ni  0.53423395  0.99759165  0.99712070     1.25400
C835        C  0.51699467  0.99753407  0.94230145     0.89300
C836        C  0.48661434  0.00196336  0.55731932     0.89300
C837        C  0.49802084  0.09964094  0.50741597     0.89300
C838        C  0.50623287  0.89952527  0.99211090     0.89500
O839        O  0.52599768  0.07321958  0.74326407    -0.72900
O840        O  0.53024665  0.92297061  0.73296948    -0.72900
O841        O  0.51664125  0.99724322  0.70060074    -0.72900
O842        O  0.53975574  0.99902174  0.77567557    -0.73000
O843        O  0.96706901  0.00415632  0.79836032    -0.72900
O844        O  0.97133792  0.99960465  0.71531484    -0.72900
O845        O  0.97189294  0.92678332  0.75181869    -0.72900
O846        O  0.96652354  0.07700770  0.76189704    -0.72900
Ni847      Ni  0.53021028  0.99796894  0.73722808     1.25400
Ni848      Ni  0.96705341  0.00198062  0.75728110     1.25400
C849        C  0.99518026  0.10016839  0.75738220     0.89300
C850        C  0.00224791  0.90098427  0.74423857     0.89300
C851        C  0.00156760  0.99777609  0.69581448     0.89300
C852        C  0.99599384  0.00338136  0.80561096     0.89500
O853        O  0.71628732  0.00105280  0.96872439    -0.72900
O854        O  0.72174253  0.00305144  0.54920772    -0.72900
O855        O  0.71699722  0.07718313  0.51429387    -0.72900
O856        O  0.72056941  0.92694693  0.50367571    -0.73000
O857        O  0.78014261  0.92243869  0.98642257    -0.72900
O858        O  0.77601405  0.07281124  0.49727466    -0.72900
O859        O  0.78081989  0.99869785  0.53207360    -0.72900
O860        O  0.77536214  0.99665462  0.95156724    -0.72900
Ni861      Ni  0.71661988  0.00222656  0.50960664     1.25400
Ni862      Ni  0.78056741  0.99736067  0.99109220     1.25400
C863        C  0.74483846  0.99896914  0.94716452     0.89300
C864        C  0.75227330  0.00088495  0.55362481     0.89300
C865        C  0.74593156  0.09946539  0.50734971     0.89300
C866        C  0.75122879  0.90015193  0.99350736     0.89500
O867        O  0.72501398  0.99749533  0.71328824    -0.72900
O868        O  0.71772864  0.00256251  0.79690041    -0.72900
O869        O  0.71895149  0.07514003  0.75997668    -0.72900
O870        O  0.72391120  0.92488576  0.75011592    -0.73000
O871        O  0.78284070  0.92206083  0.73935103    -0.72900
O872        O  0.77787932  0.07230744  0.74922238    -0.72900
O873        O  0.77672331  0.99974367  0.78615002    -0.72900
O874        O  0.78401742  0.99469559  0.70245805    -0.72900
Ni875      Ni  0.71926675  0.00010846  0.75546154     1.25400
Ni876      Ni  0.78250925  0.99708692  0.74391639     1.25400
C877        C  0.75563745  0.99549706  0.69435683     0.89300
C878        C  0.74605838  0.00194057  0.80506779     0.89300
C879        C  0.74762591  0.09821188  0.75607923     0.89300
C880        C  0.75417733  0.89898541  0.74315063     0.89500
C881        C  0.74343721  0.00325313  0.83614704    -0.16900
C882        C  0.74206766  0.00304748  0.86211864     0.07100
C883        C  0.74176897  0.00150970  0.89202425     0.09000
C884        C  0.74264616  0.99992863  0.91736552    -0.17800
C885        C  0.75464306  0.00016407  0.58338138    -0.16900
C886        C  0.75668624  0.99837713  0.60838104     0.07100
C887        C  0.75821199  0.99601971  0.63774838     0.09000
C888        C  0.75800294  0.99490902  0.66338780    -0.17800
C889        C  0.52420334  0.99752332  0.91017920    -0.16900
C890        C  0.99781138  0.00015634  0.89076953     0.07100
C891        C  0.99555187  0.00261167  0.86165978     0.09000
C892        C  0.99479389  0.00382279  0.83629098    -0.17800
C893        C  0.47882506  0.00234040  0.58951861    -0.16900
C894        C  0.00503234  0.99901017  0.60913707     0.07100
C895        C  0.00426187  0.99764210  0.63913407     0.09000
C896        C  0.00313917  0.99708773  0.66500930    -0.17800
C897        C  0.74588212  0.15441846  0.75895526    -0.16900
C898        C  0.74471111  0.20143486  0.76007021     0.07100
C899        C  0.74366340  0.25609001  0.75963414     0.09000
C900        C  0.74300881  0.30212503  0.75744434    -0.17800
C901        C  0.75835870  0.69520122  0.74151562    -0.16900
C902        C  0.75797723  0.74111513  0.73908471     0.07100
C903        C  0.75709229  0.79573567  0.73865082     0.09000
C904        C  0.75595220  0.84277209  0.73997574    -0.17800
C905        C  0.74464033  0.15562521  0.51031432    -0.16900
C906        C  0.74395264  0.20256653  0.51124267     0.07100
C907        C  0.74348045  0.25704833  0.51039185     0.09000
C908        C  0.74320907  0.30288635  0.50778923    -0.17800
C909        C  0.75711665  0.69649572  0.99283285    -0.16900
C910        C  0.75579984  0.74246449  0.99055456     0.07100
C911        C  0.75407136  0.79702290  0.98986958     0.09000
C912        C  0.75265751  0.84398551  0.99074948    -0.17800
C913        C  0.74747217  0.48322027  0.86337393    -0.15300
C914        C  0.75319795  0.51622099  0.88660427    -0.30000
H915        H  0.73909080  0.44455114  0.86718806     0.14200
H916        H  0.76166377  0.55484632  0.88277892     0.14700
C917        C  0.74786016  0.48229086  0.61312406    -0.14900
C918        C  0.75345455  0.51504919  0.63646901    -0.30000
H919        H  0.73918398  0.44373043  0.61685161     0.14200
H920        H  0.76209381  0.55362825  0.63274032     0.14700
C921        C  0.99185659  0.30370851  0.75847194    -0.16900
C922        C  0.99192140  0.25784354  0.76097184     0.07100
C923        C  0.99237751  0.20331872  0.76160010     0.09000
C924        C  0.99331522  0.15634082  0.76046023    -0.17800
C925        C  0.00408819  0.84480241  0.74141261    -0.16900
C926        C  0.50518559  0.79733558  0.74003650     0.07100
C927        C  0.50632753  0.74272443  0.74065860     0.09000
C928        C  0.50703875  0.69672582  0.74294575    -0.17800
C929        C  0.86262064  0.48205970  0.75052897    -0.14900
C930        C  0.88740474  0.51655332  0.74987818    -0.30000
H931        H  0.87055915  0.44082391  0.74175201     0.14200
H932        H  0.87945063  0.55778157  0.75866834     0.14700
C933        C  0.61262738  0.48264545  0.75089008    -0.14900
C934        C  0.63773163  0.51677725  0.74960038    -0.30000
H935        H  0.62030422  0.44123779  0.74248242     0.14200
H936        H  0.63006951  0.55819265  0.75799366     0.14700
C937        C  0.99409127  0.30267013  0.50817768    -0.16900
C938        C  0.99523769  0.25666526  0.51044290     0.07100
C939        C  0.99691286  0.20199293  0.51087983     0.09000
C940        C  0.49651739  0.15583357  0.51046868    -0.17800
C941        C  0.50834199  0.69628936  0.99265275    -0.16900
C942        C  0.50829374  0.74203094  0.98977266     0.07100
C943        C  0.50811477  0.79641404  0.98850335     0.09000
C944        C  0.50758288  0.84332387  0.98918501    -0.17800
C945        C  0.88861312  0.51595374  0.99966214    -0.14900
C946        C  0.86290166  0.48225965  0.50029833    -0.30000
H947        H  0.88016526  0.55763154  0.50849802     0.14200
H948        H  0.87128051  0.44059266  0.99155314     0.14700
C949        C  0.63883574  0.51670120  0.99964974    -0.14900
C950        C  0.61304337  0.48309506  0.50060130    -0.30000
H951        H  0.63111038  0.55803414  0.00827683     0.14200
H952        H  0.62075996  0.44177059  0.49194026     0.14700
C953        C  0.49711670  0.48428824  0.86405739    -0.14900
C954        C  0.00352876  0.51519692  0.88699722    -0.30000
H955        H  0.48878343  0.44557101  0.86780924     0.14200
H956        H  0.01228743  0.55368303  0.88318009     0.14700
C957        C  0.00300020  0.51696581  0.63726295    -0.14900
C958        C  0.49818439  0.48278895  0.61359067    -0.30000
H959        H  0.51130205  0.55482455  0.63342941     0.14200
H960        H  0.98951515  0.44506799  0.61758824     0.14700
loop_ 
_geom_bond_atom_site_label_1 
_geom_bond_atom_site_label_2 
_geom_bond_distance 
_geom_bond_site_symmetry_2 
_ccdc_geom_bond_type 
O1           Ni7   1.935       .  S
O1          C262   1.271       .  A
O2          Ni25   1.904       .  S
O2          C491   1.266       .  A
O3           H26   0.966       .  S
O3         Ni487   1.924   1_455  S
O3         Ni505   1.908   1_455  S
O3         Ni259   1.925       .  S
C4           O21   1.277   1_455  A
C4           O13   1.276       .  A
C4          C238   1.497   1_455  S
O5          Ni24   1.935       .  S
O5          C251   1.272   1_554  A
O6          Ni24   1.911       .  S
O6            C8   1.270       .  A
Ni7          O10   1.939       .  S
Ni7          O12   1.909       .  S
Ni7         O483   1.925       .  S
C8           O18   1.271       .  A
C8          C230   1.479       .  S
O9          Ni25   1.931       .  S
O9           C15   1.277       .  A
O10          C15   1.276       .  A
C11         O482   1.266   1_455  A
C11         O245   1.271       .  A
C11         C221   1.436       .  S
O12          C14   1.270       .  A
O13         Ni24   1.940       .  S
C14          O20   1.272       .  A
C14         C225   1.479       .  S
C15         C234   1.497       .  S
H16          O17   0.966       .  S
O17        Ni265   1.925   1_554  S
O17        Ni499   1.908       .  S
O17        Ni504   1.924       .  S
O18         Ni19   1.928       .  S
Ni19         O23   1.903       .  S
Ni19         O21   1.931   1_455  S
Ni19        O243   1.926   1_554  S
Ni19        O497   1.908   1_455  S
O20         Ni25   1.929       .  S
C22         O241   1.271   1_554  A
C22         O503   1.265       .  A
C22         C217   1.436       .  S
O23         C502   1.266   1_455  A
Ni24        O497   1.925   1_455  S
Ni25        O483   1.909       .  S
Ni25        O257   1.925       .  S
O27         Ni33   1.934       .  S
O27          C48   1.271       .  A
O28         Ni51   1.905       .  S
O28         C517   1.266       .  A
O29          H52   0.967       .  S
O29         Ni45   1.926       .  S
O29        Ni513   1.924   1_455  S
O29        Ni531   1.909   1_455  S
C30          O47   1.276   1_455  A
C30          O39   1.276       .  A
C30         C233   1.497   1_455  S
O31         Ni50   1.934       .  S
O31          C37   1.271       .  A
O32         Ni50   1.908       .  S
O32          C34   1.270       .  A
Ni33         O36   1.939       .  S
Ni33         O38   1.910       .  S
Ni33        O509   1.924       .  S
C34          O44   1.272       .  A
C34         C213   1.479       .  S
O35         Ni51   1.931       .  S
O35          C41   1.277       .  A
O36          C41   1.276       .  A
C37         O508   1.266   1_455  A
C37         C208   1.436       .  S
O38          C40   1.270       .  A
O39         Ni50   1.940       .  S
C40          O46   1.272       .  A
C40         C210   1.479       .  S
C41         C237   1.497       .  S
H42          O43   0.965       .  S
O43         Ni51   1.925       .  S
O43        Ni525   1.907       .  S
O43        Ni530   1.923       .  S
O44         Ni45   1.931       .  S
Ni45         O49   1.903       .  S
Ni45         O47   1.930   1_455  S
Ni45        O523   1.909   1_455  S
O46         Ni51   1.929       .  S
C48         O529   1.266       .  A
C48         C201   1.435       .  S
O49         C528   1.266   1_455  A
Ni50        O523   1.924   1_455  S
Ni51        O509   1.908       .  S
O53         Ni59   1.936       .  S
O53         C314   1.272       .  A
O54         Ni77   1.902       .  S
O54          C63   1.265       .  A
O55          H78   0.966       .  S
O55         Ni59   1.924       .  S
O55         Ni77   1.908       .  S
O55        Ni311   1.926       .  S
C56          O73   1.278       .  A
C56          O65   1.277       .  A
C56         C197   1.497       .  S
O57         Ni76   1.935       .  S
O57         C303   1.271   1_554  A
O58         Ni76   1.910       .  S
O58          C60   1.270       .  A
Ni59         O62   1.942       .  S
Ni59         O64   1.911       .  S
C60          O70   1.271       .  A
C60         C226   1.479       .  S
O61         Ni77   1.929       .  S
O61          C67   1.276       .  A
O62          C67   1.277       .  A
C63         O297   1.271       .  A
C63         C189   1.435       .  S
O64          C66   1.270       .  A
O65         Ni76   1.938       .  S
C66          O72   1.271       .  A
C66         C229   1.479       .  S
C67         C194   1.497       .  S
H68          O69   0.966       .  S
O69         Ni71   1.907       .  S
O69         Ni76   1.923       .  S
O69        Ni317   1.924   1_554  S
O70         Ni71   1.927       .  S
Ni71         O75   1.904       .  S
Ni71         O73   1.933       .  S
Ni71        O295   1.927   1_554  S
O72         Ni77   1.927       .  S
C74          O75   1.266       .  A
C74         O293   1.272   1_554  A
C74         C188   1.436       .  S
Ni77        O309   1.924       .  S
O79         Ni85   1.935       .  S
O79         C100   1.271       .  A
O80        Ni103   1.904       .  S
O80          C89   1.267       .  A
O81         H104   0.966       .  S
O81         Ni85   1.923       .  S
O81        Ni103   1.908       .  S
O81         Ni97   1.925       .  S
C82          O99   1.277       .  A
C82          O91   1.277       .  A
C82         C193   1.497       .  S
O83        Ni102   1.935       .  S
O83          C89   1.272       .  A
O84        Ni102   1.909       .  S
O84          C86   1.270       .  A
Ni85         O88   1.939       .  S
Ni85         O90   1.909       .  S
C86          O96   1.272       .  A
C86         C209   1.480       .  S
O87        Ni103   1.933       .  S
O87          C93   1.278       .  A
O88          C93   1.277       .  A
C89         C181   1.436       .  S
O90          C92   1.270       .  A
O91        Ni102   1.942       .  S
C92          O98   1.272       .  A
C92         C214   1.479       .  S
C93         C198   1.497       .  S
H94          O95   0.966       .  S
O95        Ni103   1.926       .  S
O95         Ni97   1.908       .  S
O95        Ni102   1.923       .  S
O96         Ni97   1.930       .  S
Ni97        O101   1.903       .  S
Ni97         O99   1.930       .  S
O98        Ni103   1.930       .  S
C100        O101   1.266       .  A
C100        C180   1.436       .  S
O105       Ni353   1.919   1_565  S
O105        C595   1.280       .  A
O106       Ni113   1.922       .  S
O106        C596   1.280       .  A
O107       Ni113   1.918       .  S
O107        C597   1.280       .  A
O108       Ni113   1.918   1_566  S
O108        C838   1.280       .  A
O109       Ni114   1.920       .  S
O109        C118   1.280       .  A
O110       Ni114   1.920   1_545  S
O110        C357   1.280   1_455  A
O111       Ni354   1.901   1_554  S
O111        C116   1.276       .  A
O112       Ni114   1.901       .  S
O112        C115   1.276       .  A
Ni113       O345   1.919   1_544  S
Ni113      Ni834   2.393   1_544  S
Ni114       O351   1.901       .  S
Ni114      Ni833   2.398   1_465  S
C115        O585   1.276   1_465  A
C115        C169   1.411   1_455  S
C116        O586   1.276   1_465  A
C116        C173   1.412       .  S
C117        O587   1.280   1_455  A
C117        O350   1.280   1_554  A
C117        C220   1.436   1_455  S
C118        O828   1.280   1_455  A
C118        C224   1.436       .  S
O119       Ni127   1.918   1_545  S
O119        C609   1.280   1_455  A
O120       Ni127   1.919       .  S
O120        C610   1.280       .  A
O121       Ni127   1.899       .  S
O121        C611   1.276       .  A
O122       Ni127   1.897   1_545  S
O122        C612   1.276   1_455  A
O123       Ni128   1.921       .  S
O123        C132   1.281       .  A
O124       Ni128   1.924       .  S
O124        C131   1.281   1_545  A
O125       Ni128   1.918   1_565  S
O125        C130   1.280       .  A
O126       Ni128   1.918       .  S
O126        C129   1.280       .  A
Ni127      Ni608   2.398   1_465  S
Ni128      Ni607   2.393   1_545  S
C129        O599   1.280       .  A
C129        C204   1.435       .  S
C130        O600   1.280       .  A
C130        C205   1.436       .  S
C131        O601   1.280       .  A
C131        C176   1.439       .  S
C132        O602   1.280   1_545  A
C132        C172   1.439       .  S
O133       Ni381   1.915   1_565  S
O133        C143   1.280       .  A
O134       Ni141   1.917       .  S
O134        C144   1.279       .  A
O135       Ni141   1.919       .  S
O135        C145   1.280       .  A
O136       Ni141   1.919   1_566  S
O136        C386   1.280       .  A
O137       Ni142   1.917       .  S
O137        C146   1.280       .  A
O138       Ni382   1.917   1_544  S
O138        C145   1.280       .  A
O139       Ni382   1.914   1_554  S
O139        C144   1.279   1_565  A
O140       Ni142   1.917       .  S
O140        C143   1.279       .  A
Ni141       O373   1.915   1_544  S
Ni141      Ni382   2.395   1_544  S
Ni142       O378   1.917   1_565  S
Ni142       O379   1.913       .  S
Ni142      Ni381   2.395   1_565  S
C143        C164   1.433       .  S
C144        C165   1.432       .  S
C145        C185   1.436       .  S
C146        O376   1.280       .  A
C146        C192   1.435       .  S
O147       Ni155   1.915       .  S
O147        C157   1.279   1_545  A
O148       Ni155   1.914       .  S
O148        C158   1.279       .  A
O149       Ni155   1.918       .  S
O149        C159   1.280       .  A
O150       Ni155   1.918   1_565  S
O150        C160   1.280       .  A
O151       Ni156   1.919       .  S
O151        C160   1.280       .  A
O152       Ni156   1.918   1_545  S
O152        C159   1.280       .  A
O153       Ni156   1.919       .  S
O153        C158   1.280   1_565  A
O154       Ni156   1.917       .  S
O154        C157   1.280       .  A
Ni155      Ni156   2.394   1_545  S
C157        C168   1.432       .  S
C158        C161   1.433       .  S
C159        C177   1.436       .  S
C160        C184   1.436       .  S
C161        C162   1.204   1_545  T
C162        C163   1.410       .  S
C163        C164   1.204       .  T
C165        C166   1.203       .  T
C166        C167   1.409       .  S
C167        C168   1.204   1_545  T
C169        C650   1.191   1_565  T
C170        C649   1.208       .  T
C170        C171   1.416       .  S
C171        C172   1.208   1_565  T
C173        C654   1.192       .  T
C174        C653   1.208       .  T
C174        C175   1.416   1_545  S
C175        C176   1.208       .  T
C177        C178   1.206       .  T
C178        C179   1.413       .  S
C179        C180   1.206       .  T
C181        C182   1.206       .  T
C182        C183   1.412       .  S
C183        C184   1.206       .  T
C185        C186   1.206       .  T
C186        C187   1.413       .  S
C187        C188   1.206       .  T
C189        C190   1.206       .  T
C190        C191   1.412       .  S
C191        C192   1.206       .  T
C193        C194   1.356       .  D
C193        H195   1.086       .  S
C194        H196   1.086       .  S
C197        C198   1.357       .  D
C197        H199   1.086       .  S
C198        H200   1.086       .  S
C201        C202   1.206       .  T
C202        C203   1.412       .  S
C203        C204   1.206       .  T
C205        C686   1.206       .  T
C206        C685   1.206       .  T
C206        C207   1.412       .  S
C207        C208   1.206       .  T
C209        C210   1.347       .  D
C209        H211   1.087       .  S
C210        H212   1.087       .  S
C213        C214   1.347       .  D
C213        H215   1.087       .  S
C214        H216   1.087       .  S
C217        C218   1.206       .  T
C218        C219   1.412       .  S
C219        C700   1.206       .  T
C220        C699   1.206       .  T
C221        C222   1.206       .  T
C222        C223   1.412       .  S
C223        C224   1.206       .  T
C225        C466   1.346       .  D
C225        H467   1.087       .  S
C226        C465   1.346       .  D
C226        H468   1.087   1_554  S
H227        C465   1.087       .  S
H228        C466   1.087       .  S
C229        C470   1.346       .  D
C229        H231   1.087       .  S
C230        C469   1.346   1_554  D
C230        H232   1.087   1_554  S
C233        C714   1.356   1_655  D
C233        H235   1.086       .  S
C234        C713   1.357       .  D
C234        H236   1.086       .  S
C237        C718   1.357       .  D
C237        H719   1.086       .  S
C238        C717   1.356   1_655  D
C238        H720   1.086       .  S
H239        C717   1.086       .  S
H240        C718   1.086       .  S
O241       Ni247   1.935       .  S
O242       Ni265   1.904       .  S
O242        C731   1.266       .  A
O243        H266   0.966       .  S
O243       Ni727   1.924   1_455  S
O243       Ni745   1.908   1_455  S
C244        O261   1.277   1_455  A
C244        O253   1.276       .  A
C244        C478   1.496   1_455  S
O245       Ni264   1.935       .  S
O246       Ni264   1.911       .  S
O246        C248   1.270       .  A
Ni247       O250   1.939       .  S
Ni247       O252   1.909       .  S
Ni247       O723   1.925       .  S
C248        O258   1.271       .  A
C248        C470   1.479       .  S
O249       Ni265   1.931       .  S
O249        C255   1.277       .  A
O250        C255   1.276       .  A
C251        O722   1.266   1_455  A
C251        C461   1.436       .  S
O252        C254   1.270       .  A
O253       Ni264   1.939       .  S
C254        O260   1.272       .  A
C254        C465   1.479   1_556  S
C255        C474   1.497       .  S
H256        O257   0.966       .  S
O257       Ni739   1.908       .  S
O257       Ni744   1.924       .  S
O258       Ni259   1.927       .  S
Ni259       O263   1.903       .  S
Ni259       O261   1.930   1_455  S
Ni259       O737   1.908   1_455  S
O260       Ni265   1.929       .  S
C262        O743   1.266       .  A
C262        C457   1.435       .  S
O263        C742   1.266   1_455  A
Ni264       O737   1.925   1_455  S
Ni265       O723   1.909       .  S
O267       Ni273   1.934       .  S
O267        C288   1.271       .  A
O268       Ni291   1.904       .  S
O268        C757   1.266       .  A
O269        H292   0.967       .  S
O269       Ni753   1.925   1_455  S
O269       Ni771   1.909   1_455  S
O269       Ni285   1.925       .  S
C270        O287   1.276   1_455  A
C270        O279   1.276       .  A
C270        C473   1.497   1_455  S
O271       Ni290   1.934       .  S
O271        C277   1.271       .  A
O272       Ni290   1.908       .  S
O272        C274   1.270       .  A
Ni273       O276   1.939       .  S
Ni273       O278   1.909       .  S
Ni273       O749   1.924       .  S
C274        O284   1.272       .  A
C274        C453   1.479       .  S
O275       Ni291   1.932       .  S
O275        C281   1.277       .  A
O276        C281   1.276       .  A
C277        O748   1.266   1_455  A
C277        C448   1.435       .  S
O278        C280   1.270       .  A
O279       Ni290   1.940       .  S
C280        O286   1.272       .  A
C280        C450   1.479       .  S
C281        C477   1.497       .  S
H282        O283   0.965       .  S
O283       Ni291   1.925       .  S
O283       Ni765   1.908       .  S
O283       Ni770   1.924       .  S
O284       Ni285   1.930       .  S
Ni285       O289   1.903       .  S
Ni285       O287   1.930   1_455  S
Ni285       O763   1.909   1_455  S
O286       Ni291   1.929       .  S
C288        O769   1.266       .  A
C288        C441   1.435       .  S
O289        C768   1.266   1_455  A
Ni290       O763   1.924   1_455  S
Ni291       O749   1.908       .  S
O293       Ni299   1.936       .  S
O294       Ni317   1.902       .  S
O294        C303   1.265       .  A
O295        H318   0.966       .  S
O295       Ni299   1.924       .  S
O295       Ni317   1.908       .  S
C296        O313   1.277       .  A
C296        O305   1.276       .  A
C296        C437   1.497       .  S
O297       Ni316   1.935       .  S
O298       Ni316   1.910       .  S
O298        C300   1.270       .  A
Ni299       O302   1.942       .  S
Ni299       O304   1.910       .  S
C300        O310   1.272       .  A
C300        C466   1.479       .  S
O301       Ni317   1.929       .  S
O301        C307   1.276       .  A
O302        C307   1.277       .  A
C303        C429   1.435       .  S
O304        C306   1.270       .  A
O305       Ni316   1.938       .  S
C306        O312   1.271       .  A
C306        C469   1.479       .  S
C307        C434   1.497       .  S
H308        O309   0.966       .  S
O309       Ni311   1.908       .  S
O309       Ni316   1.923       .  S
O310       Ni311   1.928       .  S
Ni311       O315   1.904       .  S
Ni311       O313   1.932       .  S
O312       Ni317   1.928       .  S
C314        O315   1.266       .  A
C314        C428   1.436       .  S
O319       Ni325   1.935       .  S
O319        C340   1.271       .  A
O320       Ni343   1.904       .  S
O320        C329   1.266       .  A
O321        H344   0.966       .  S
O321       Ni325   1.923       .  S
O321       Ni343   1.907       .  S
O321       Ni337   1.925       .  S
C322        O339   1.277       .  A
C322        O331   1.277       .  A
C322        C433   1.497       .  S
O323       Ni342   1.935       .  S
O323        C329   1.272       .  A
O324       Ni342   1.909       .  S
O324        C326   1.270       .  A
Ni325       O328   1.939       .  S
Ni325       O330   1.909       .  S
C326        O336   1.272       .  A
C326        C449   1.480       .  S
O327       Ni343   1.932       .  S
O327        C333   1.278       .  A
O328        C333   1.277       .  A
C329        C421   1.436       .  S
O330        C332   1.270       .  A
O331       Ni342   1.941       .  S
C332        O338   1.272       .  A
C332        C454   1.479       .  S
C333        C438   1.497       .  S
H334        O335   0.966       .  S
O335       Ni343   1.926       .  S
O335       Ni337   1.908       .  S
O335       Ni342   1.923       .  S
O336       Ni337   1.930       .  S
Ni337       O341   1.904       .  S
Ni337       O339   1.930       .  S
O338       Ni343   1.929       .  S
C340        O341   1.266       .  A
C340        C420   1.436       .  S
O345        C835   1.280       .  A
O346       Ni353   1.922       .  S
O346        C836   1.280       .  A
O347       Ni353   1.918       .  S
O347        C837   1.280       .  A
O348       Ni353   1.918   1_565  S
O348        C598   1.280       .  A
O349       Ni354   1.920       .  S
O349        C358   1.280       .  A
O350       Ni354   1.920   1_545  S
O351        C356   1.276   1_565  A
O352       Ni354   1.901       .  S
O352        C355   1.277       .  A
Ni353      Ni594   2.393   1_545  S
Ni354      Ni593   2.398   1_466  S
C355        O825   1.276   1_455  A
C355        C409   1.411   1_455  S
C356        O826   1.276   1_455  A
C356        C413   1.412   1_545  S
C357        O827   1.280       .  A
C357        C460   1.436       .  S
C358        O588   1.280   1_456  A
C358        C464   1.436       .  S
O359       Ni367   1.917   1_545  S
O359        C849   1.280   1_455  A
O360       Ni367   1.919       .  S
O360        C850   1.280       .  A
O361       Ni367   1.899       .  S
O361        C851   1.276       .  A
O362       Ni367   1.897   1_545  S
O362        C852   1.276   1_455  A
O363       Ni368   1.920       .  S
O363        C372   1.281       .  A
O364       Ni368   1.924       .  S
O364        C371   1.281   1_545  A
O365       Ni368   1.918   1_565  S
O365        C370   1.280       .  A
O366       Ni368   1.918       .  S
O366        C369   1.280       .  A
Ni367      Ni848   2.398   1_465  S
Ni368      Ni847   2.393   1_545  S
C369        O839   1.280       .  A
C369        C444   1.435       .  S
C370        O840   1.280       .  A
C370        C445   1.436       .  S
C371        O841   1.280       .  A
C371        C416   1.439       .  S
C372        O842   1.280   1_545  A
C372        C412   1.439       .  S
O373        C383   1.280       .  A
O374       Ni381   1.917       .  S
O374        C384   1.279       .  A
O375       Ni381   1.919       .  S
O375        C385   1.280       .  A
O376       Ni381   1.919   1_565  S
O377       Ni382   1.917       .  S
O377        C386   1.280       .  A
O378        C385   1.280       .  A
O379        C384   1.279   1_565  A
O380       Ni382   1.917       .  S
O380        C383   1.279       .  A
C383        C404   1.433       .  S
C384        C405   1.431       .  S
C385        C425   1.436       .  S
C386        C432   1.435       .  S
O387       Ni395   1.915       .  S
O387        C397   1.279   1_545  A
O388       Ni395   1.914       .  S
O388        C398   1.279       .  A
O389       Ni395   1.919       .  S
O389        C399   1.280       .  A
O390       Ni395   1.918   1_565  S
O390        C400   1.280       .  A
O391       Ni396   1.918       .  S
O391        C400   1.280       .  A
O392       Ni396   1.918   1_545  S
O392        C399   1.280       .  A
O393       Ni396   1.918       .  S
O393        C398   1.280   1_565  A
O394       Ni396   1.916       .  S
O394        C397   1.280       .  A
Ni395      Ni396   2.395   1_545  S
C397        C408   1.432       .  S
C398        C401   1.433       .  S
C399        C417   1.436       .  S
C400        C424   1.435       .  S
C401        C402   1.204   1_545  T
C402        C403   1.410       .  S
C403        C404   1.204       .  T
C405        C406   1.203       .  T
C406        C407   1.408       .  S
C407        C408   1.204   1_545  T
C409        C890   1.191   1_565  T
C410        C889   1.208       .  T
C410        C411   1.415       .  S
C411        C412   1.208   1_565  T
C413        C894   1.192       .  T
C414        C893   1.208       .  T
C414        C415   1.416       .  S
C415        C416   1.208   1_545  T
C417        C418   1.206       .  T
C418        C419   1.413       .  S
C419        C420   1.206       .  T
C421        C422   1.206       .  T
C422        C423   1.412       .  S
C423        C424   1.206       .  T
C425        C426   1.206       .  T
C426        C427   1.413       .  S
C427        C428   1.206       .  T
C429        C430   1.206       .  T
C430        C431   1.412       .  S
C431        C432   1.206       .  T
C433        C434   1.356       .  D
C433        H435   1.086       .  S
C434        H436   1.086       .  S
C437        C438   1.357       .  D
C437        H439   1.086       .  S
C438        H440   1.086       .  S
C441        C442   1.206       .  T
C442        C443   1.412       .  S
C443        C444   1.206       .  T
C445        C926   1.206       .  T
C446        C925   1.206       .  T
C446        C447   1.412       .  S
C447        C448   1.206       .  T
C449        C450   1.347       .  D
C449        H451   1.087       .  S
C450        H452   1.087       .  S
C453        C454   1.347       .  D
C453        H455   1.087       .  S
C454        H456   1.087       .  S
C457        C458   1.206       .  T
C458        C459   1.412       .  S
C459        C940   1.206       .  T
C460        C939   1.206       .  T
C461        C462   1.206       .  T
C462        C463   1.413       .  S
C463        C464   1.206       .  T
C469        H471   1.087   1_556  S
C470        H472   1.087       .  S
C473        C954   1.356   1_655  D
C473        H475   1.086       .  S
C474        C953   1.357       .  D
C474        H476   1.086       .  S
C477        C958   1.357       .  D
C477        H959   1.086       .  S
C478        C957   1.356   1_655  D
C478        H960   1.086       .  S
H479        C957   1.086       .  S
H480        C958   1.086       .  S
O481       Ni487   1.936       .  S
O481        C742   1.272       .  A
O482       Ni505   1.904       .  S
O483        H506   0.966       .  S
O483       Ni739   1.926       .  S
C484        O501   1.277       .  A
C484        O493   1.276       .  A
C484        C718   1.497       .  S
O485       Ni504   1.935       .  S
O485        C731   1.272   1_554  A
O486       Ni504   1.910       .  S
O486        C488   1.270       .  A
Ni487       O490   1.940       .  S
Ni487       O492   1.910       .  S
C488        O498   1.271       .  A
C488        C710   1.478       .  S
O489       Ni505   1.931   1_455  S
O489        C495   1.277   1_455  A
O490        C495   1.277       .  A
C491        O725   1.272       .  A
C491        C701   1.436       .  S
O492        C494   1.270       .  A
O493       Ni504   1.939       .  S
C494        O500   1.272       .  A
C494        C705   1.479       .  S
C495        C714   1.497   1_655  S
H496        O497   0.966       .  S
O497       Ni745   1.925   1_554  S
O498       Ni499   1.927       .  S
Ni499       O503   1.903       .  S
Ni499       O501   1.931       .  S
Ni499       O723   1.926   1_554  S
O500       Ni505   1.929       .  S
C502        O721   1.272   1_554  A
C502        C697   1.436       .  S
Ni505       O737   1.925       .  S
O507       Ni513   1.933       .  S
O507        C528   1.271       .  A
O508       Ni531   1.904       .  S
O509        H532   0.967       .  S
O509       Ni525   1.926       .  S
C510        O527   1.277       .  A
C510        O519   1.277       .  A
C510        C713   1.497       .  S
O511       Ni530   1.934       .  S
O511        C517   1.271       .  A
O512       Ni530   1.910       .  S
O512        C514   1.270       .  A
Ni513       O516   1.938       .  S
Ni513       O518   1.907       .  S
C514        O524   1.272       .  A
C514        C693   1.480       .  S
O515       Ni531   1.932   1_455  S
O515        C521   1.277   1_455  A
O516        C521   1.276       .  A
C517        C688   1.436       .  S
O518        C520   1.270       .  A
O519       Ni530   1.939       .  S
C520        O526   1.272       .  A
C520        C690   1.477       .  S
C521        C717   1.497   1_655  S
H522        O523   0.965       .  S
O523       Ni531   1.927       .  S
O524       Ni525   1.929       .  S
Ni525       O529   1.903       .  S
Ni525       O527   1.931       .  S
O526       Ni531   1.928       .  S
C528        C681   1.435       .  S
O533       Ni539   1.934       .  S
O533        C794   1.271       .  A
O534       Ni557   1.902       .  S
O534        C543   1.266       .  A
O535        H558   0.966       .  S
O535       Ni539   1.925       .  S
O535       Ni557   1.909       .  S
O535       Ni791   1.925       .  S
C536        O553   1.276       .  A
C536        O545   1.276       .  A
C536        C677   1.497       .  S
O537       Ni556   1.936       .  S
O537        C783   1.272   1_554  A
O538       Ni556   1.909       .  S
O538        C540   1.270       .  A
Ni539       O542   1.939       .  S
Ni539       O544   1.909       .  S
C540        O550   1.272       .  A
C540        C706   1.479       .  S
O541       Ni557   1.931       .  S
O541        C547   1.277       .  A
O542        C547   1.276       .  A
C543        O777   1.272       .  A
C543        C669   1.435       .  S
O544        C546   1.270       .  A
O545       Ni556   1.941       .  S
C546        O552   1.272       .  A
C546        C709   1.479       .  S
C547        C674   1.497       .  S
H548        O549   0.966       .  S
O549       Ni797   1.926   1_554  S
O549       Ni551   1.908       .  S
O549       Ni556   1.925       .  S
O550       Ni551   1.930       .  S
Ni551       O555   1.902       .  S
Ni551       O553   1.929       .  S
Ni551       O775   1.926   1_554  S
O552       Ni557   1.929       .  S
C554        O773   1.271   1_554  A
C554        O555   1.265       .  A
C554        C668   1.435       .  S
Ni557       O789   1.926       .  S
O559       Ni565   1.935       .  S
O559        C580   1.272       .  A
O560       Ni583   1.903       .  S
O560        C569   1.266       .  A
O561        H584   0.966       .  S
O561       Ni565   1.924       .  S
O561       Ni583   1.908       .  S
O561       Ni577   1.926       .  S
C562        O579   1.278       .  A
C562        O571   1.276       .  A
C562        C673   1.497       .  S
O563       Ni582   1.935       .  S
O563        C569   1.271       .  A
O564       Ni582   1.907       .  S
O564        C566   1.270       .  A
Ni565       O568   1.941       .  S
Ni565       O570   1.909       .  S
C566        O576   1.272       .  A
C566        C689   1.478       .  S
O567       Ni583   1.930       .  S
O567        C573   1.276       .  A
O568        C573   1.277       .  A
C569        C661   1.435       .  S
O570        C572   1.270       .  A
O571       Ni582   1.938       .  S
C572        O578   1.272       .  A
C572        C694   1.480       .  S
C573        C678   1.497       .  S
H574        O575   0.966       .  S
O575       Ni583   1.925       .  S
O575       Ni577   1.909       .  S
O575       Ni582   1.924       .  S
O576       Ni577   1.929       .  S
Ni577       O581   1.905       .  S
Ni577       O579   1.933       .  S
O578       Ni583   1.931       .  S
C580        O581   1.267       .  A
C580        C660   1.436       .  S
O585       Ni833   1.897       .  S
O586       Ni593   1.899       .  S
O587       Ni593   1.918       .  S
O588       Ni593   1.918   1_565  S
O589       Ni594   1.919       .  S
O589        C598   1.280       .  A
O590       Ni594   1.918   1_545  S
O590        C837   1.280       .  A
O591       Ni834   1.921   1_554  S
O591        C596   1.281   1_565  A
O592       Ni594   1.923       .  S
O592        C595   1.281       .  A
Ni593       O825   1.897   1_544  S
Ni594       O831   1.921   1_565  S
C595        C649   1.439       .  S
C596        C653   1.439       .  S
C597        O830   1.280       .  A
C597        C700   1.435       .  S
C598        C704   1.436       .  S
O599       Ni607   1.918   1_545  S
O600       Ni607   1.919       .  S
O601       Ni607   1.918       .  S
O602       Ni607   1.921       .  S
O603       Ni608   1.901       .  S
O603        C612   1.276       .  A
O604       Ni608   1.901   1_565  S
O604        C611   1.277   1_655  A
O605       Ni608   1.918   1_565  S
O605        C610   1.280   1_655  A
O606       Ni608   1.918       .  S
O606        C609   1.280       .  A
C609        C684   1.435       .  S
C610        C685   1.435       .  S
C611        C656   1.412       .  S
C612        C652   1.411       .  S
O613       Ni861   1.902       .  S
O613        C623   1.276   1_545  A
O614       Ni621   1.902       .  S
O614        C624   1.277       .  A
O615       Ni621   1.918       .  S
O615        C625   1.280       .  A
O616       Ni621   1.919   1_565  S
O616        C866   1.280   1_554  A
O617       Ni622   1.918       .  S
O617        C626   1.280       .  A
O618       Ni862   1.917   1_545  S
O618        C625   1.280   1_556  A
O619       Ni862   1.900   1_554  S
O619        C624   1.276   1_565  A
O620       Ni622   1.900       .  S
O620        C623   1.276       .  A
Ni621       O853   1.902   1_554  S
Ni621      Ni862   2.398   1_544  S
Ni622       O858   1.917   1_565  S
Ni622       O859   1.899       .  S
Ni622      Ni861   2.398   1_565  S
C623        C644   1.414   1_565  S
C624        C645   1.413   1_545  S
C625        C665   1.435       .  S
C626        O856   1.280       .  A
C626        C672   1.435       .  S
O627       Ni635   1.900       .  S
O627        C637   1.276       .  A
O628       Ni635   1.901   1_545  S
O628        C638   1.276       .  A
O629       Ni635   1.919   1_545  S
O629        C639   1.280       .  A
O630       Ni635   1.919       .  S
O630        C640   1.280       .  A
O631       Ni636   1.919       .  S
O631        C640   1.280       .  A
O632       Ni636   1.918   1_545  S
O632        C639   1.280       .  A
O633       Ni636   1.902       .  S
O633        C638   1.277   1_565  A
O634       Ni636   1.902       .  S
O634        C637   1.276       .  A
Ni635      Ni636   2.398       .  S
C637        C648   1.413       .  S
C638        C641   1.414       .  S
C639        C657   1.436       .  S
C640        C664   1.435       .  S
C641        C642   1.193       .  T
C642        C643   1.392       .  S
C643        C644   1.193       .  T
C645        C646   1.193       .  T
C646        C647   1.391       .  S
C647        C648   1.193       .  T
C650        C651   1.389       .  S
C651        C652   1.191       .  T
C654        C655   1.390       .  S
C655        C656   1.192       .  T
C657        C658   1.206       .  T
C658        C659   1.413       .  S
C659        C660   1.206       .  T
C661        C662   1.206       .  T
C662        C663   1.412       .  S
C663        C664   1.206       .  T
C665        C666   1.205       .  T
C666        C667   1.412       .  S
C667        C668   1.205       .  T
C669        C670   1.206       .  T
C670        C671   1.412       .  S
C671        C672   1.206       .  T
C673        C674   1.357       .  D
C673        H675   1.086       .  S
C674        H676   1.086       .  S
C677        C678   1.356       .  D
C677        H679   1.086       .  S
C678        H680   1.086       .  S
C681        C682   1.205       .  T
C682        C683   1.411       .  S
C683        C684   1.205       .  T
C686        C687   1.413       .  S
C687        C688   1.206       .  T
C689        C690   1.347       .  D
C689        H691   1.087       .  S
C690        H692   1.087       .  S
C693        C694   1.347       .  D
C693        H695   1.087       .  S
C694        H696   1.087       .  S
C697        C698   1.206       .  T
C698        C699   1.413       .  S
C701        C702   1.206       .  T
C702        C703   1.413       .  S
C703        C704   1.206       .  T
C705        C946   1.347       .  D
C705        H947   1.087       .  S
C706        C945   1.347   1_554  D
C706        H948   1.087   1_554  S
H707        C945   1.087   1_554  S
H708        C946   1.087       .  S
C709        C950   1.346       .  D
C709        H711   1.087       .  S
C710        C949   1.346   1_554  D
C710        H712   1.087   1_554  S
C713        H715   1.086       .  S
C714        H716   1.086       .  S
O721       Ni727   1.936       .  S
O722       Ni745   1.904       .  S
O723        H746   0.966       .  S
C724        O741   1.277       .  A
C724        O733   1.276       .  A
C724        C958   1.497       .  S
O725       Ni744   1.936       .  S
O726       Ni744   1.911       .  S
O726        C728   1.270       .  A
Ni727       O730   1.940       .  S
Ni727       O732   1.909       .  S
C728        O738   1.271       .  A
C728        C950   1.479       .  S
O729       Ni745   1.930   1_455  S
O729        C735   1.277   1_455  A
O730        C735   1.277       .  A
C731        C941   1.436       .  S
O732        C734   1.270       .  A
O733       Ni744   1.940       .  S
C734        O740   1.272       .  A
C734        C945   1.479       .  S
C735        C954   1.497   1_655  S
H736        O737   0.966       .  S
O738       Ni739   1.928       .  S
Ni739       O743   1.903       .  S
Ni739       O741   1.931       .  S
O740       Ni745   1.929       .  S
C742        C937   1.437       .  S
O747       Ni753   1.933       .  S
O747        C768   1.271       .  A
O748       Ni771   1.904       .  S
O749        H772   0.967       .  S
O749       Ni765   1.926       .  S
C750        O767   1.277       .  A
C750        O759   1.277       .  A
C750        C953   1.497       .  S
O751       Ni770   1.935       .  S
O751        C757   1.271       .  A
O752       Ni770   1.910       .  S
O752        C754   1.270       .  A
Ni753       O756   1.938       .  S
Ni753       O758   1.907       .  S
C754        O764   1.272       .  A
C754        C933   1.480       .  S
O755       Ni771   1.932   1_455  S
O755        C761   1.277   1_455  A
O756        C761   1.276       .  A
C757        C928   1.436       .  S
O758        C760   1.270       .  A
O759       Ni770   1.940       .  S
C760        O766   1.272       .  A
C760        C930   1.477       .  S
C761        C957   1.497   1_655  S
H762        O763   0.965       .  S
O763       Ni771   1.927       .  S
O764       Ni765   1.929       .  S
Ni765       O769   1.904       .  S
Ni765       O767   1.931       .  S
O766       Ni771   1.928       .  S
C768        C921   1.434       .  S
O773       Ni779   1.934       .  S
O774       Ni797   1.902       .  S
O774        C783   1.266       .  A
O775        H798   0.966       .  S
O775       Ni779   1.926       .  S
O775       Ni797   1.909       .  S
C776        O793   1.276       .  A
C776        O785   1.276       .  A
C776        C917   1.496       .  S
O777       Ni796   1.935       .  S
O778       Ni796   1.909       .  S
O778        C780   1.270       .  A
Ni779       O782   1.939       .  S
Ni779       O784   1.909       .  S
C780        O790   1.272       .  A
C780        C946   1.479       .  S
O781       Ni797   1.931       .  S
O781        C787   1.277       .  A
O782        C787   1.276       .  A
C783        C909   1.435       .  S
O784        C786   1.270       .  A
O785       Ni796   1.941       .  S
C786        O792   1.271       .  A
C786        C949   1.478       .  S
C787        C914   1.497       .  S
H788        O789   0.966       .  S
O789       Ni791   1.909       .  S
O789       Ni796   1.925       .  S
O790       Ni791   1.931       .  S
Ni791       O795   1.902       .  S
Ni791       O793   1.929       .  S
O792       Ni797   1.928       .  S
C794        O795   1.265       .  A
C794        C908   1.435       .  S
O799       Ni805   1.935       .  S
O799        C820   1.272       .  A
O800       Ni823   1.903       .  S
O800        C809   1.265       .  A
O801        H824   0.966       .  S
O801       Ni805   1.924       .  S
O801       Ni823   1.908       .  S
O801       Ni817   1.926       .  S
C802        O819   1.278       .  A
C802        O811   1.276       .  A
C802        C913   1.497       .  S
O803       Ni822   1.934       .  S
O803        C809   1.271       .  A
O804       Ni822   1.907       .  S
O804        C806   1.270       .  A
Ni805       O808   1.941       .  S
Ni805       O810   1.910       .  S
C806        O816   1.272       .  A
C806        C929   1.477       .  S
O807       Ni823   1.929       .  S
O807        C813   1.276       .  A
O808        C813   1.277       .  A
C809        C901   1.435       .  S
O810        C812   1.270       .  A
O811       Ni822   1.938       .  S
C812        O818   1.272       .  A
C812        C934   1.480       .  S
C813        C918   1.496       .  S
H814        O815   0.966       .  S
O815       Ni823   1.926       .  S
O815       Ni817   1.909       .  S
O815       Ni822   1.924       .  S
O816       Ni817   1.929       .  S
Ni817       O821   1.905       .  S
Ni817       O819   1.933       .  S
O818       Ni823   1.930       .  S
C820        O821   1.267       .  A
C820        C900   1.436       .  S
O826       Ni833   1.899       .  S
O827       Ni833   1.918       .  S
O828       Ni833   1.918   1_565  S
O829       Ni834   1.919       .  S
O829        C838   1.280       .  A
O830       Ni834   1.919   1_544  S
O831        C836   1.281       .  A
O832       Ni834   1.923       .  S
O832        C835   1.281       .  A
C835        C889   1.439       .  S
C836        C893   1.439       .  S
C837        C940   1.435       .  S
C838        C944   1.436       .  S
O839       Ni847   1.918   1_545  S
O840       Ni847   1.919       .  S
O841       Ni847   1.918       .  S
O842       Ni847   1.921       .  S
O843       Ni848   1.901       .  S
O843        C852   1.276       .  A
O844       Ni848   1.901   1_565  S
O844        C851   1.277   1_655  A
O845       Ni848   1.918   1_565  S
O845        C850   1.280   1_655  A
O846       Ni848   1.918       .  S
O846        C849   1.280       .  A
C849        C924   1.434       .  S
C850        C925   1.435       .  S
C851        C896   1.412       .  S
C852        C892   1.411       .  S
O853        C863   1.276   1_545  A
O854       Ni861   1.902       .  S
O854        C864   1.277       .  A
O855       Ni861   1.919       .  S
O855        C865   1.280       .  A
O856       Ni861   1.919   1_565  S
O857       Ni862   1.918       .  S
O857        C866   1.280       .  A
O858        C865   1.280       .  A
O859        C864   1.276   1_565  A
O860       Ni862   1.900       .  S
O860        C863   1.276       .  A
C863        C884   1.414       .  S
C864        C885   1.413       .  S
C865        C905   1.435       .  S
C866        C912   1.435       .  S
O867       Ni875   1.900   1_565  S
O867        C877   1.276       .  A
O868       Ni875   1.901       .  S
O868        C878   1.276       .  A
O869       Ni875   1.919       .  S
O869        C879   1.280       .  A
O870       Ni875   1.918   1_565  S
O870        C880   1.280       .  A
O871       Ni876   1.919       .  S
O871        C880   1.280       .  A
O872       Ni876   1.918   1_545  S
O872        C879   1.280       .  A
O873       Ni876   1.902       .  S
O873        C878   1.277   1_565  A
O874       Ni876   1.902       .  S
O874        C877   1.276       .  A
Ni875      Ni876   2.398   1_545  S
C877        C888   1.413       .  S
C878        C881   1.414       .  S
C879        C897   1.436       .  S
C880        C904   1.435       .  S
C881        C882   1.193       .  T
C882        C883   1.392       .  S
C883        C884   1.193   1_545  T
C885        C886   1.193   1_545  T
C886        C887   1.391       .  S
C887        C888   1.193       .  T
C890        C891   1.389       .  S
C891        C892   1.191       .  T
C894        C895   1.390       .  S
C895        C896   1.192       .  T
C897        C898   1.206       .  T
C898        C899   1.413       .  S
C899        C900   1.206       .  T
C901        C902   1.206       .  T
C902        C903   1.412       .  S
C903        C904   1.206       .  T
C905        C906   1.206       .  T
C906        C907   1.412       .  S
C907        C908   1.206       .  T
C909        C910   1.206       .  T
C910        C911   1.412       .  S
C911        C912   1.206       .  T
C913        C914   1.357       .  D
C913        H915   1.086       .  S
C914        H916   1.086       .  S
C917        C918   1.356       .  D
C917        H919   1.086       .  S
C918        H920   1.086       .  S
C921        C922   1.205       .  T
C922        C923   1.411       .  S
C923        C924   1.205       .  T
C926        C927   1.413       .  S
C927        C928   1.206       .  T
C929        C930   1.346       .  D
C929        H931   1.087       .  S
C930        H932   1.087       .  S
C933        C934   1.347       .  D
C933        H935   1.087       .  S
C934        H936   1.087       .  S
C937        C938   1.206       .  T
C938        C939   1.413       .  S
C941        C942   1.206       .  T
C942        C943   1.413       .  S
C943        C944   1.206       .  T
C949        H951   1.087   1_556  S
C950        H952   1.087       .  S
C953        H955   1.086       .  S
C954        H956   1.086       .  S
