geometry optimzed in LAMMPS
_audit_creation_date              2020-11-30 
_audit_creation_method            'lammps2cif' 
_symmetry_space_group_name_H-M    'P1' 
_symmetry_Int_Tables_number       1 
_symmetry_cell_setting            triclinic 
loop_ 
_symmetry_equiv_pos_as_xyz 
  x,y,z 
_cell_length_a                    25.43497471 
_cell_length_b                    27.083852325213584 
_cell_length_c                    25.02468796794954 
_cell_angle_alpha                 88.98706561914958 
_cell_angle_beta                  91.16575858459828 
_cell_angle_gamma                 89.64081465820296 
loop_ 
_atom_site_label 
_atom_site_type_symbol 
_atom_site_fract_x 
_atom_site_fract_y 
_atom_site_fract_z 
_atom_site_charge 
C1          C  0.59104232  0.68087193  0.60086267     0.85400
C2          C  0.64994737  0.67060220  0.59407191    -0.54900
C3          C  0.66436198  0.62268357  0.60384410     0.08300
C4          C  0.61898031  0.58919951  0.62109831     0.19200
C5          C  0.56311154  0.64298711  0.56523458    -0.55600
C6          C  0.57752566  0.59481337  0.57574222     0.08400
C7          C  0.58091248  0.66322397  0.65859026    -0.55100
C8          C  0.59529883  0.61545312  0.66897948     0.09000
H9          H  0.67771016  0.69846430  0.58112738     0.13500
H10         H  0.63176450  0.55066043  0.63021167    -0.00800
H11         H  0.53362089  0.65366563  0.53518048     0.13800
H12         H  0.56579410  0.68607175  0.68991112     0.13600
C13         C  0.93208809  0.18725521  0.59842323     0.85400
C14         C  0.94361225  0.16990983  0.65632775    -0.54900
C15         C  0.93611469  0.12071193  0.66502906     0.08300
C16         C  0.91686622  0.09301449  0.61537356     0.19200
C17         C  0.96586355  0.15379272  0.56383919    -0.55600
C18         C  0.95832777  0.10447423  0.57287150     0.08400
C19         C  0.87532575  0.17063504  0.58755602    -0.55100
C20         C  0.86730724  0.12155224  0.59623611     0.09000
H21         H  0.95679203  0.19434611  0.68777324     0.13500
H22         H  0.90989388  0.05309584  0.62297243    -0.00800
H23         H  0.99468326  0.16805037  0.53618309     0.13800
H24         H  0.84308166  0.19460469  0.57504840     0.13600
C25         C  0.10717435  0.68890938  0.94582875     0.85400
C26         C  0.09868379  0.67372102  0.88762108    -0.54900
C27         C  0.10813630  0.62487182  0.87863574     0.08300
C28         C  0.12675445  0.59567902  0.92907827     0.19200
C29         C  0.07201352  0.65308135  0.97716618    -0.55600
C30         C  0.08248658  0.60425123  0.96930581     0.08400
C31         C  0.16346711  0.67315463  0.96017450    -0.55100
C32         C  0.17433029  0.62436202  0.95189745     0.09000
H33         H  0.08350012  0.69864650  0.85652568     0.13500
H34         H  0.13516835  0.55618751  0.92202065    -0.00800
H35         H  0.04014601  0.66537663  0.00191533     0.13800
H36         H  0.19231253  0.69913017  0.97511870     0.13600
C37         C  0.36601661  0.42465758  0.45255121     0.85400
C38         C  0.40557934  0.45075869  0.48901632    -0.54900
C39         C  0.45686756  0.44203140  0.47745053     0.08300
C40         C  0.46442646  0.40690024  0.43046658     0.19200
C41         C  0.38121992  0.43987530  0.39555454    -0.55600
C42         C  0.43274619  0.43180464  0.38402395     0.08400
C43         C  0.38118719  0.36968446  0.45633638    -0.55100
C44         C  0.43260702  0.36015086  0.44500961     0.09000
H45         H  0.39390633  0.47733119  0.51866509     0.13500
H46         H  0.50632953  0.39968172  0.42152231    -0.00800
H47         H  0.35336931  0.45585606  0.36659254     0.13800
H48         H  0.35400534  0.34033384  0.46604482     0.13600
C49         C  0.60618490  0.85141237  0.09794477     0.85400
C50         C  0.59553046  0.86701737  0.15540366    -0.54900
C51         C  0.60310315  0.91612109  0.16454816     0.08300
C52         C  0.62172127  0.94530263  0.11496981     0.19200
C53         C  0.57188109  0.88594823  0.06258253    -0.55600
C54         C  0.57966103  0.93510859  0.07103105     0.08400
C55         C  0.66290552  0.86852607  0.08860814    -0.55100
C56         C  0.67147449  0.91745796  0.09758380     0.09000
H57         H  0.58215340  0.84138442  0.18603117     0.13500
H58         H  0.62846217  0.98492507  0.12299156    -0.00800
H59         H  0.54432587  0.87224645  0.03270888     0.13800
H60         H  0.69457040  0.84454758  0.07686921     0.13600
C61         C  0.95523947  0.36018823  0.10446919     0.85400
C62         C  0.89750771  0.37227623  0.09113814    -0.54900
C63         C  0.88339779  0.42026960  0.09888637     0.08300
C64         C  0.92908854  0.45232603  0.11969712     0.19200
C65         C  0.98662441  0.39730561  0.07137784    -0.55600
C66         C  0.97318274  0.44565907  0.07876797     0.08400
C67         C  0.96228488  0.37661020  0.16273338    -0.55100
C68         C  0.94893138  0.42475112  0.17063118     0.09000
H69         H  0.87006591  0.34485660  0.07649276     0.13500
H70         H  0.91741882  0.49115490  0.12676417    -0.00800
H71         H  0.01748189  0.38581414  0.04485889     0.13800
H72         H  0.97512492  0.35277122  0.19572999     0.13600
C73         C  0.44073841  0.17995114  0.94217010     0.85400
C74         C  0.38493899  0.16536300  0.95632424    -0.54900
C75         C  0.37263610  0.11756089  0.94533218     0.08300
C76         C  0.41808345  0.08834084  0.91993436     0.19200
C77         C  0.47620710  0.14152558  0.97126199    -0.55600
C78         C  0.46456738  0.09344030  0.96019835     0.08400
C79         C  0.44601998  0.16731839  0.88299155    -0.55100
C80         C  0.43520996  0.11934927  0.87078894     0.09000
H81         H  0.35754836  0.19081934  0.97429584     0.13500
H82         H  0.40827903  0.04959272  0.91055290    -0.00800
H83         H  0.50774646  0.15164441  0.99859781     0.13800
H84         H  0.45975379  0.19366057  0.85347291     0.13600
C85         C  0.09422564  0.86211192  0.45647240     0.85400
C86         C  0.15236487  0.87434045  0.46486815    -0.54900
C87         C  0.16506108  0.92208992  0.45236109     0.08300
C88         C  0.11781978  0.95344748  0.43159795     0.19200
C89         C  0.06461892  0.90098473  0.48867962    -0.55600
C90         C  0.07701551  0.94867125  0.47594199     0.08400
C91         C  0.08175412  0.87669540  0.39818981    -0.55100
C92         C  0.09366669  0.92441939  0.38479193     0.09000
H93         H  0.18098629  0.84727284  0.47980230     0.13500
H94         H  0.12777431  0.99230831  0.42165900    -0.00800
H95         H  0.03419793  0.89280743  0.51692987     0.13800
H96         H  0.06480085  0.85098583  0.36995067     0.13600
O97         O  0.06941825  0.92895067  0.95784418    -0.79600
C98         C  0.98249516  0.05180600  0.88010466     0.81400
O99         O  0.14334040  0.06743145  0.04150256    -0.80700
O100        O  0.96506510  0.13304567  0.02610607    -0.82200
O101        O  0.91833972  0.95954480  0.06413283    -0.82000
O102        O  0.02935256  0.90147451  0.03070125    -0.80600
Zn103      Zn  0.06145489  0.00342582  0.95963212     1.55700
O104        O  0.88840264  0.03095920  0.03006326    -0.82000
Cd105      Cd  0.99854785  0.96417721  0.06208091     1.59700
Cd106      Cd  0.06820207  0.06204737  0.07149280     1.59600
O107        O  0.02252307  0.96535211  0.14038080    -0.82000
O108        O  0.02212351  0.02316962  0.02198302    -1.92500
Cd109      Cd  0.95759648  0.06158437  0.99961370     1.59900
O110        O  0.07350856  0.03127281  0.14825402    -0.82000
O111        O  0.95178418  0.06547652  0.91683493    -0.80600
C112        C  0.16285019  0.05382571  0.99750482     0.81900
C113        C  0.05623759  0.89380618  0.98931269     0.81600
O114        O  0.02526972  0.02845652  0.89102853    -0.79600
C115        C  0.88055571  0.98925873  0.05312206     0.82400
O116        O  0.13549271  0.03056741  0.96300346    -0.79700
C117        C  0.05184316  0.99310987  0.16832324     0.82500
C118        C  0.99810531  0.15474483  0.05654872     0.82800
O119        O  0.03806334  0.13256970  0.07740352    -0.82100
O120        O  0.62008015  0.07957981  0.56224714    -0.79600
C121        C  0.49260579  0.15521196  0.47553199     0.81400
O122        O  0.46598656  0.00976411  0.63959614    -0.80700
O123        O  0.40124698  0.01682749  0.45302782    -0.82200
O124        O  0.58317995  0.97743025  0.41204595    -0.82000
O125        O  0.65090617  0.01447689  0.51961826    -0.80600
Zn126      Zn  0.54146999  0.07975416  0.55503144     1.55700
O127        O  0.51302387  0.01846494  0.37938743    -0.82000
Cd128      Cd  0.58129159  0.98333142  0.49338358     1.59700
Cd129      Cd  0.47548006  0.98040966  0.56373706     1.59600
O130        O  0.57811693  0.91137248  0.52130758    -0.82000
O131        O  0.51881231  0.02286573  0.51531162    -1.92500
Cd132      Cd  0.47777602  0.04470891  0.44910828     1.59900
O133        O  0.50666952  0.90965523  0.57131034    -0.82000
O134        O  0.47380785  0.12197551  0.44503969    -0.80600
C135        C  0.48349913  0.05016933  0.65803332     0.81900
C136        C  0.65835351  0.05305550  0.54706581     0.81600
O137        O  0.51918352  0.14380683  0.51777831    -0.79600
C138        C  0.55409462  0.99191242  0.37281657     0.82400
O139        O  0.51173578  0.07871740  0.62957601    -0.79700
C140        C  0.54628032  0.88829450  0.55119960     0.82500
C141        C  0.37835370  0.98944725  0.48751148     0.82800
O142        O  0.40192431  0.97375061  0.52996039    -0.82100
O143        O  0.65712663  0.51938723  0.02768685    -0.79600
C144        C  0.55941234  0.54379703  0.88312266     0.81400
O145        O  0.51449017  0.62594061  0.07909774    -0.80700
O146        O  0.40813003  0.52257675  0.96392827    -0.82200
O147        O  0.52150229  0.39152326  0.03399036    -0.82000
O148        O  0.63193930  0.45083355  0.06990092    -0.80600
Zn149      Zn  0.58864483  0.55127320  0.00200131     1.55700
O150        O  0.47821280  0.41807307  0.96048480    -0.82000
Cd151      Cd  0.55119183  0.45488390  0.06736478     1.59700
Cd152      Cd  0.48345544  0.55582286  0.07254557     1.59600
O153        O  0.52686868  0.45617222  0.14566243    -0.82000
O154        O  0.52755636  0.51450298  0.02542663    -1.92500
Cd155      Cd  0.48429401  0.49398408  0.96180146     1.59900
O156        O  0.47855002  0.52479581  0.14879809    -0.82000
O157        O  0.51831463  0.51826111  0.89143784    -0.80600
C158        C  0.55583128  0.64476324  0.05954413     0.81900
C159        C  0.66795414  0.47958721  0.05366028     0.81600
O160        O  0.58895224  0.55802886  0.92155796    -0.79600
C161        C  0.49386376  0.38331291  0.99206770     0.82400
O162        O  0.58645970  0.61982534  0.03058291    -0.79700
C163        C  0.49808613  0.48592182  0.17114921     0.82500
C164        C  0.38499458  0.54938996  0.99779072     0.82800
O165        O  0.40846368  0.56384718  0.04019005    -0.82100
O166        O  0.01836270  0.64309380  0.53477471    -0.79600
C167        C  0.87483845  0.56033300  0.55619177     0.81400
O168        O  0.07077037  0.51034554  0.65209715    -0.80700
O169        O  0.95052146  0.41969181  0.53489619    -0.82200
O170        O  0.01979717  0.52230899  0.39444240    -0.82000
O171        O  0.06276173  0.62196310  0.46291274    -0.80600
Zn172      Zn  0.99191594  0.58099121  0.56851228     1.55700
O173        O  0.94903302  0.48161313  0.42153896    -0.82000
Cd174      Cd  0.05481140  0.54602727  0.46525431     1.59700
Cd175      Cd  0.05843075  0.48029179  0.57687285     1.59600
O176        O  0.12943489  0.51563993  0.46980753    -0.82000
O177        O  0.01403403  0.52466609  0.52893655    -1.92500
Cd178      Cd  0.95028746  0.48940719  0.50336548     1.59900
O179        O  0.13079696  0.46814834  0.54362207    -0.82000
O180        O  0.88183238  0.52284640  0.52713488    -0.80600
C181        C  0.05170892  0.54989419  0.67090166     0.81900
C182        C  0.04586816  0.65456970  0.49453476     0.81600
O183        O  0.91343794  0.58528201  0.57398386    -0.79600
C184        C  0.97916209  0.49634699  0.38455236     0.82400
O185        O  0.02144845  0.57804818  0.64285254    -0.79700
C186        C  0.15276316  0.48534929  0.50201872     0.82500
C187        C  0.98134517  0.39438146  0.56535866     0.82800
O188        O  0.02349238  0.41215477  0.58532050    -0.82100
C189        C  0.24111350  0.97589885  0.42618812    -0.14500
C190        C  0.21878960  0.94160651  0.46171444     0.07700
C191        C  0.24847929  0.92500768  0.50645663    -0.14500
C192        C  0.29978059  0.94116481  0.51482924    -0.14500
C193        C  0.32295606  0.97440870  0.47864210     0.07700
C194        C  0.29291702  0.99199587  0.43441069    -0.14500
H195        H  0.21915577  0.98925458  0.39140756     0.11700
H196        H  0.23197893  0.89950271  0.53529538     0.11700
H197        H  0.32143938  0.92705953  0.54959853     0.11700
H198        H  0.30954778  0.01779677  0.40595473     0.11700
C199        C  0.05162698  0.79264358  0.51186024    -0.14500
C200        C  0.08243658  0.80800698  0.46854868     0.07700
C201        C  0.10319610  0.77158059  0.43527232    -0.14500
C202        C  0.09116169  0.72176188  0.44318119    -0.14500
C203        C  0.05881999  0.70705783  0.48526725     0.07700
C204        C  0.03982662  0.74296950  0.51983891    -0.14500
H205        H  0.03677242  0.81800483  0.54062923     0.11700
H206        H  0.12817878  0.78190480  0.40242108     0.11700
H207        H  0.10718596  0.69485089  0.41636794     0.11700
H208        H  0.01576044  0.73275764  0.55342945     0.11700
C209        C  0.03750392  0.92845811  0.30173546    -0.14500
C210        C  0.08119299  0.94574471  0.33094026     0.07700
C211        C  0.11308431  0.98206526  0.30765247    -0.14500
C212        C  0.10291247  0.99890722  0.25515121    -0.14500
C213        C  0.06073768  0.97952920  0.22523429     0.07700
C214        C  0.02762913  0.94485840  0.24951777    -0.14500
H215        H  0.01086905  0.90189061  0.31904227     0.11700
H216        H  0.14685791  0.99625745  0.32914709     0.11700
H217        H  0.12894570  0.02580465  0.23745870     0.11700
H218        H  0.99415900  0.92990193  0.22795026     0.11700
C219        C  0.45773707  0.32040640  0.92961936    -0.14500
C220        C  0.47906313  0.33202274  0.97993775     0.07700
C221        C  0.48461476  0.29445307  0.01904963    -0.14500
C222        C  0.47076342  0.24595860  0.00740378    -0.14500
C223        C  0.45290699  0.23342960  0.95574868     0.07700
C224        C  0.44420786  0.27190689  0.91788826    -0.14500
H225        H  0.45159127  0.34882496  0.89907515     0.11700
H226        H  0.49918854  0.30257823  0.05885179     0.11700
H227        H  0.47431391  0.21833774  0.03906036     0.11700
H228        H  0.42667322  0.26496637  0.87907853     0.11700
C229        C  0.42000578  0.05910232  0.79511885    -0.14500
C230        C  0.44756833  0.09908897  0.81710859     0.07700
C231        C  0.48826212  0.12031096  0.78726204    -0.14500
C232        C  0.49949989  0.10403162  0.73629775    -0.14500
C233        C  0.47134149  0.06510938  0.71346093     0.07700
C234        C  0.43187447  0.04216140  0.74374889    -0.14500
H235        H  0.38867028  0.04165355  0.81696947     0.11700
H236        H  0.51236682  0.14952686  0.80329407     0.11700
H237        H  0.53076911  0.12202743  0.71481508     0.11700
H238        H  0.40953973  0.01185644  0.72736143     0.11700
C239        C  0.29248217  0.06680960  0.92526256    -0.14500
C240        C  0.32119783  0.09648334  0.96051875     0.07700
C241        C  0.29906018  0.10889322  0.00958359    -0.14500
C242        C  0.24835039  0.09381021  0.02219178    -0.14500
C243        C  0.21833529  0.06613669  0.98586729     0.07700
C244        C  0.24136406  0.05195415  0.93768243    -0.14500
H245        H  0.30869490  0.05684211  0.88723171     0.11700
H246        H  0.32080339  0.13100130  0.03800775     0.11700
H247        H  0.23225097  0.10489383  0.05990195     0.11700
H248        H  0.21946294  0.03032375  0.90898301     0.11700
C249        C  0.99113007  0.50528450  0.28543781    -0.14500
C250        C  0.96753416  0.48124087  0.32898485     0.07700
C251        C  0.93485226  0.44053326  0.31925977    -0.14500
C252        C  0.92757278  0.42314909  0.26744159    -0.14500
C253        C  0.95199672  0.44665191  0.22424002     0.07700
C254        C  0.98298774  0.48835935  0.23339563    -0.14500
H255        H  0.01655691  0.53666145  0.29170277     0.11700
H256        H  0.91636508  0.42098411  0.35193889     0.11700
H257        H  0.90359689  0.39077172  0.26110744     0.11700
H258        H  0.00282210  0.50642923  0.20069345     0.11700
C259        C  0.78676585  0.40527012  0.09993704    -0.14500
C260        C  0.82845099  0.43761863  0.08965734     0.07700
C261        C  0.81708540  0.48501891  0.06864968    -0.14500
C262        C  0.76489249  0.49903445  0.05663196    -0.14500
C263        C  0.72341718  0.46594757  0.06585039     0.07700
C264        C  0.73508349  0.41910884  0.08801320    -0.14500
H265        H  0.79397997  0.36892721  0.11740971     0.11700
H266        H  0.84845991  0.51061330  0.06019369     0.11700
H267        H  0.75703669  0.53561288  0.04000011     0.11700
H268        H  0.70423657  0.39281364  0.09602958     0.11700
C269        C  0.96128061  0.23766132  0.03179892    -0.14500
C270        C  0.98969872  0.20728225  0.06807565     0.07700
C271        C  0.01005454  0.22753254  0.11530352    -0.14500
C272        C  0.99998386  0.27679365  0.12735981    -0.14500
C273        C  0.96951685  0.30699109  0.09212110     0.04100
C274        C  0.95241522  0.28717159  0.04312427    -0.14500
H275        H  0.94624992  0.22323529  0.99444652     0.11700
H276        H  0.03301094  0.20500392  0.14346979     0.11700
H277        H  0.01693517  0.29069815  0.16390548     0.11700
H278        H  0.93090011  0.30983462  0.01393862     0.11700
C279        C  0.57432218  0.01990276  0.02978014    -0.14500
C280        C  0.55031490  0.97452258  0.04050404     0.07700
C281        C  0.49830925  0.96735357  0.02190975    -0.14500
C282        C  0.47068074  0.00540579  0.99473294    -0.14500
C283        C  0.49458539  0.05127282  0.98522588     0.07700
C284        C  0.54720503  0.05747635  0.00204221    -0.14500
H285        H  0.61433767  0.02658499  0.04231680     0.11700
H286        H  0.47827348  0.93294375  0.02984178     0.11700
H287        H  0.43009493  0.99931055  0.98292656     0.11700
H288        H  0.56786690  0.09148175  0.99388610     0.11700
C289        C  0.60718958  0.91135388  0.26441487    -0.14500
C290        C  0.59362590  0.93809502  0.21754709     0.07700
C291        C  0.56859535  0.98427194  0.22186670    -0.14500
C292        C  0.55540180  0.00232507  0.27222126    -0.14500
C293        C  0.56824707  0.97493301  0.31895816     0.07700
C294        C  0.59497946  0.92966074  0.31439959    -0.14500
H295        H  0.62712446  0.87600117  0.26243672     0.11700
H296        H  0.55757998  0.00554161  0.18629062     0.11700
H297        H  0.53522124  0.03750263  0.27465135     0.11700
H298        H  0.60541566  0.90763124  0.34963965     0.11700
C299        C  0.53320391  0.72806706  0.09554585    -0.14500
C300        C  0.56876028  0.69690856  0.07001828     0.07700
C301        C  0.61667530  0.71636970  0.05295324    -0.14500
C302        C  0.62919589  0.76562788  0.06157767    -0.14500
C303        C  0.59426284  0.79705739  0.08808434     0.07700
C304        C  0.54559902  0.77761360  0.10391503    -0.14500
H305        H  0.49556338  0.71436334  0.10850893     0.11700
H306        H  0.64464674  0.69356132  0.03237255     0.11700
H307        H  0.66582561  0.77838612  0.04569330     0.11700
H308        H  0.51705880  0.80092723  0.12303422     0.11700
C309        C  0.73179925  0.98699193  0.06984755    -0.14500
C310        C  0.72475879  0.93943977  0.09189997     0.07700
C311        C  0.76954509  0.91079668  0.10510422    -0.14500
C312        C  0.81966089  0.92761829  0.09324377    -0.14500
C313        C  0.82675826  0.97387645  0.06811138     0.07700
C314        C  0.78234832  0.00402845  0.05780885    -0.14500
H315        H  0.69845242  0.01025468  0.05986580     0.11700
H316        H  0.76591907  0.87471032  0.12395404     0.11700
H317        H  0.85286685  0.90370660  0.10303343     0.11700
H318        H  0.78651590  0.04025010  0.03940852     0.11700
C319        C  0.42747131  0.27171365  0.41846255    -0.14500
C320        C  0.45375225  0.30891739  0.44661947     0.07700
C321        C  0.49597826  0.29579001  0.48096885    -0.14500
C322        C  0.50970764  0.24590194  0.48933353    -0.14500
C323        C  0.48201848  0.20832551  0.46268633     0.07700
C324        C  0.44178483  0.22204769  0.42593617    -0.14500
H325        H  0.39474019  0.28107436  0.39172493     0.11700
H326        H  0.51647377  0.32387430  0.50340682     0.11700
H327        H  0.54113533  0.23667370  0.51767437     0.11700
H328        H  0.41974899  0.19424623  0.40464746     0.11700
C329        C  0.22693846  0.42435400  0.51025102    -0.14500
C330        C  0.20689877  0.46969351  0.49053685     0.07700
C331        C  0.23910137  0.50024920  0.45974805    -0.14500
C332        C  0.29024039  0.48563257  0.44852965    -0.14500
C333        C  0.30975922  0.43896719  0.46546462     0.07700
C334        C  0.27779521  0.40904058  0.49778414    -0.14500
H335        H  0.20307365  0.40045772  0.53488286     0.11700
H336        H  0.22507223  0.53594073  0.44512035     0.11700
H337        H  0.31456803  0.51101423  0.42625063     0.11700
H338        H  0.29199043  0.37436649  0.51458425     0.11700
C339        C  0.49187366  0.41926687  0.30600008    -0.14500
C340        C  0.45477720  0.44814918  0.33218125     0.07700
C341        C  0.43600626  0.49184894  0.30704195    -0.14500
C342        C  0.45131481  0.50478236  0.25549335    -0.14500
C343        C  0.48603205  0.47446540  0.22779857     0.07700
C344        C  0.50723922  0.43218110  0.25413139    -0.14500
H345        H  0.50714654  0.38556460  0.32455937     0.11700
H346        H  0.40856236  0.51573133  0.32691611     0.11700
H347        H  0.43481157  0.53794489  0.23686510     0.11700
H348        H  0.53457097  0.40831603  0.23414040     0.11700
C349        C  0.04617258  0.51817818  0.97230495    -0.14500
C350        C  0.05298805  0.56406669  0.99656865     0.07700
C351        C  0.03150182  0.57129679  0.04728215    -0.14500
C352        C  0.00465643  0.53335758  0.07339742    -0.14500
C353        C  0.99913573  0.48703169  0.04978402     0.07700
C354        C  0.01965474  0.48013087  0.99859606    -0.14500
H355        H  0.06062274  0.51165339  0.93268293     0.11700
H356        H  0.03648522  0.60592011  0.06766926     0.11700
H357        H  0.98966391  0.54010595  0.11267754     0.11700
H358        H  0.01479013  0.44542955  0.97836322     0.11700
C359        C  0.25821167  0.62210913  0.00652125    -0.14500
C360        C  0.22686050  0.60208240  0.96542754     0.07700
C361        C  0.24690140  0.56207146  0.93688387    -0.14500
C362        C  0.29801131  0.54410136  0.94768251    -0.14500
C363        C  0.32981407  0.56560238  0.98753528     0.07700
C364        C  0.30889773  0.60427762  0.01724106    -0.14500
H365        H  0.24377789  0.65180524  0.03065246     0.11700
H366        H  0.22396699  0.54566855  0.90503177     0.11700
H367        H  0.31283802  0.51390555  0.92444204     0.11700
H368        H  0.33208421  0.62157109  0.04841802     0.11700
C369        C  0.04685996  0.61844358  0.80025821    -0.14500
C370        C  0.09282104  0.60202455  0.82725837     0.07700
C371        C  0.12343269  0.56487829  0.80446066    -0.14500
C372        C  0.10952223  0.54635369  0.75407791    -0.14500
C373        C  0.06479596  0.56478382  0.72612299     0.07700
C374        C  0.03318958  0.60027883  0.75034179    -0.14500
H375        H  0.02136807  0.64573404  0.81763139     0.11700
H376        H  0.15885355  0.55142541  0.82468579     0.11700
H377        H  0.13455010  0.51890005  0.73630828     0.11700
H378        H  0.99793845  0.61458044  0.73038585     0.11700
C379        C  0.10369090  0.78034054  0.91773346    -0.14500
C380        C  0.09692793  0.74314441  0.95709825     0.07700
C381        C  0.08278744  0.75746118  0.00865212    -0.14500
C382        C  0.06970799  0.80631159  0.01885125    -0.14500
C383        C  0.07258835  0.84267448  0.97838075     0.07700
C384        C  0.09133774  0.82956634  0.92820344    -0.14500
H385        H  0.11840538  0.77169484  0.87873684     0.11700
H386        H  0.08102163  0.73076552  0.04127509     0.11700
H387        H  0.05735909  0.81558435  0.05862018     0.11700
H388        H  0.09558114  0.85716830  0.89675754     0.11700
C389        C  0.00669019  0.02439847  0.57803525    -0.14500
C390        C  0.99039220  0.06587979  0.54768417     0.07700
C391        C  0.00566300  0.07031887  0.49411796    -0.14500
C392        C  0.03543610  0.03298834  0.47094440    -0.14500
C393        C  0.05043702  0.99085792  0.50115837     0.07700
C394        C  0.03665190  0.98748659  0.55515097    -0.14500
H395        H  0.99665957  0.02055976  0.61968465     0.11700
H396        H  0.99341263  0.10200528  0.46978819     0.11700
H397        H  0.04503325  0.03624894  0.42911940     0.11700
H398        H  0.04871372  0.95591925  0.57975414     0.11700
C399        C  0.90736823  0.27464079  0.56468232    -0.14500
C400        C  0.94370126  0.24164975  0.58949308     0.07700
C401        C  0.99300102  0.25988219  0.60607070    -0.14500
C402        C  0.00486319  0.30982776  0.59995227    -0.14500
C403        C  0.96807762  0.34244085  0.57594744     0.07700
C404        C  0.91931429  0.32432217  0.55839979    -0.14500
H405        H  0.86998581  0.26306286  0.54849735     0.11700
H406        H  0.02233005  0.23531842  0.62411619     0.11700
H407        H  0.04318981  0.32266298  0.61304434     0.11700
H408        H  0.89040872  0.34844347  0.53890525     0.11700
C409        C  0.80752832  0.05718990  0.55848066    -0.14500
C410        C  0.81463467  0.09997391  0.58842556     0.07700
C411        C  0.77050754  0.12558201  0.60650031    -0.14500
C412        C  0.72005174  0.10988075  0.59334813    -0.14500
C413        C  0.71242279  0.06796943  0.56196478     0.07700
C414        C  0.75666128  0.04133868  0.54509615    -0.14500
H415        H  0.84117296  0.03730396  0.54369756     0.11700
H416        H  0.77510538  0.15849053  0.63009637     0.11700
H417        H  0.68699200  0.13110422  0.60732453     0.11700
H418        H  0.75199457  0.00886602  0.52087036     0.11700
C419        C  0.90861575  0.10364707  0.75812745    -0.14500
C420        C  0.94551382  0.09752340  0.71802678     0.07700
C421        C  0.99354020  0.07392477  0.73030697    -0.14500
C422        C  0.00501560  0.05751422  0.78267469    -0.14500
C423        C  0.96867728  0.06477791  0.82358020     0.07700
C424        C  0.91996107  0.08730975  0.81041902    -0.14500
H425        H  0.87156851  0.12228599  0.74918644     0.11700
H426        H  0.02281281  0.06983499  0.69987538     0.11700
H427        H  0.04298261  0.04059998  0.79143266     0.11700
H428        H  0.89105230  0.09344152  0.84078481     0.11700
C429        C  0.53573157  0.55727964  0.49409913    -0.14500
C430        C  0.55400577  0.55212175  0.54733715     0.07700
C431        C  0.54688943  0.50662172  0.57427302    -0.14500
C432        C  0.51835836  0.46875628  0.55003783    -0.14500
C433        C  0.49773104  0.47533400  0.49810949     0.07700
C434        C  0.50787181  0.51918979  0.46972456    -0.14500
H435        H  0.54159884  0.59129886  0.47169450     0.11700
H436        H  0.56048280  0.50111641  0.61510024     0.11700
H437        H  0.51010080  0.43534007  0.57273818     0.11700
H438        H  0.49148758  0.52506247  0.42981702     0.11700
C439        C  0.54316480  0.76272121  0.61943093    -0.14500
C440        C  0.57562946  0.73420621  0.58673386     0.07700
C441        C  0.59456008  0.75637742  0.53958796    -0.14500
C442        C  0.58544506  0.80645737  0.52817643    -0.14500
C443        C  0.55539593  0.83517486  0.56255891     0.07700
C444        C  0.53333261  0.81249728  0.60750556    -0.14500
H445        H  0.52442921  0.74720659  0.65408775     0.11700
H446        H  0.61781209  0.73520253  0.51226043     0.11700
H447        H  0.60177212  0.82267139  0.49231007     0.11700
H448        H  0.50896441  0.83346575  0.63403098     0.11700
C449        C  0.76149807  0.63092399  0.61464223    -0.14500
C450        C  0.71814216  0.60472400  0.59491346     0.07700
C451        C  0.72623225  0.56309376  0.56360404    -0.14500
C452        C  0.77719918  0.54854762  0.55095296    -0.14500
C453        C  0.82083878  0.57514454  0.56998829     0.07700
C454        C  0.81244621  0.61609278  0.60261307    -0.14500
H455        H  0.75585624  0.66305187  0.63914595     0.11700
H456        H  0.69309176  0.54282171  0.54756856     0.11700
H457        H  0.78236598  0.51677080  0.52584853     0.11700
H458        H  0.84518175  0.63706901  0.61835239     0.11700
C459        C  0.61589232  0.61523381  0.76654307    -0.14500
C460        C  0.59069041  0.59314240  0.72283038     0.07700
C461        C  0.55740776  0.55292408  0.73152468    -0.14500
C462        C  0.54797815  0.53600362  0.78362095    -0.14500
C463        C  0.57234327  0.55873151  0.82771052     0.07700
C464        C  0.60721376  0.59790992  0.81847229    -0.14500
H465        H  0.64149173  0.64655580  0.76045049     0.11700
H466        H  0.53687161  0.53608843  0.69827971     0.11700
H467        H  0.52091763  0.50578899  0.78945613     0.11700
H468        H  0.62640968  0.61638585  0.85152176     0.11700
loop_ 
_geom_bond_atom_site_label_1 
_geom_bond_atom_site_label_2 
_geom_bond_distance 
_geom_bond_site_symmetry_2 
_ccdc_geom_bond_type 
C1            C2   1.536       .  S
C1            C7   1.541       .  S
C1            C5   1.539       .  S
C1          C440   1.528       .  S
C2            H9   1.086       .  S
C2            C3   1.363       .  D
C3            C4   1.536       .  S
C3          C450   1.472       .  S
C4            C8   1.536       .  S
C4            C6   1.538       .  S
C4           H10   1.110       .  S
C5           H11   1.086       .  S
C5            C6   1.373       .  D
C6          C430   1.490       .  S
C7           H12   1.082       .  S
C7            C8   1.362       .  D
C8          C460   1.474       .  S
C13          C14   1.537       .  S
C13          C19   1.535       .  S
C13          C17   1.535       .  S
C13         C400   1.518       .  S
C14          H21   1.086       .  S
C14          C15   1.362       .  D
C15          C16   1.536       .  S
C15         C420   1.472       .  S
C16          C20   1.538       .  S
C16          C18   1.542       .  S
C16          H22   1.110       .  S
C17          H23   1.086       .  S
C17          C18   1.366       .  D
C18         C390   1.479       .  S
C19          H24   1.081       .  S
C19          C20   1.360       .  D
C20         C410   1.476       .  S
C25          C26   1.532       .  S
C25          C31   1.525       .  S
C25          C29   1.539       .  S
C25         C380   1.522       .  S
C26          H33   1.085       .  S
C26          C27   1.367       .  D
C27          C28   1.542       .  S
C27         C370   1.483       .  S
C28          C32   1.547       .  S
C28          C30   1.545       .  S
C28          H34   1.107       .  S
C29          H35   1.084   1_556  S
C29          C30   1.366       .  D
C30         C350   1.489       .  S
C31          H36   1.085       .  S
C31          C32   1.369       .  D
C32         C360   1.493       .  S
C37          C38   1.530       .  S
C37          C43   1.537       .  S
C37          C41   1.535       .  S
C37         C333   1.523       .  S
C38          H45   1.087       .  S
C38          C39   1.362       .  D
C39          C40   1.540       .  S
C39         C433   1.472       .  S
C40          C44   1.549       .  S
C40          C42   1.543       .  S
C40          H46   1.110       .  S
C41          H47   1.086       .  S
C41          C42   1.365       .  D
C42         C340   1.485       .  S
C43          H48   1.084       .  S
C43          C44   1.368       .  D
C44         C320   1.485       .  S
C49          C50   1.535       .  S
C49          C55   1.539       .  S
C49          C53   1.532       .  S
C49         C303   1.528       .  S
C50          H57   1.086       .  S
C50          C51   1.368       .  D
C51          C52   1.543       .  S
C51         C290   1.487       .  S
C52          C56   1.543       .  S
C52          C54   1.548       .  S
C52          H58   1.109       .  S
C53          H59   1.086       .  S
C53          C54   1.367       .  D
C54         C280   1.489       .  S
C55          H60   1.080       .  S
C55          C56   1.366       .  D
C56         C310   1.492       .  S
C61          C62   1.531       .  S
C61          C67   1.539       .  S
C61          C65   1.530       .  S
C61         C273   1.522       .  S
C62          H69   1.086       .  S
C62          C63   1.365       .  D
C63          C64   1.543       .  S
C63         C260   1.484       .  S
C64          C68   1.540       .  S
C64          C66   1.546       .  S
C64          H70   1.109       .  S
C65          H71   1.086   1_655  S
C65          C66   1.368       .  D
C66         C353   1.489       .  S
C67          H72   1.083       .  S
C67          C68   1.364       .  D
C68         C253   1.477       .  S
C73          C74   1.523       .  S
C73          C79   1.534       .  S
C73          C77   1.537       .  S
C73         C223   1.526       .  S
C74          H81   1.087       .  S
C74          C75   1.365       .  D
C75          C76   1.550       .  S
C75         C240   1.485       .  S
C76          C80   1.548       .  S
C76          C78   1.546       .  S
C76          H82   1.108       .  S
C77          H83   1.083       .  S
C77          C78   1.369       .  D
C78         C283   1.491       .  S
C79          H84   1.082       .  S
C79          C80   1.368       .  D
C80         C230   1.499       .  S
C85          C86   1.529       .  S
C85          C91   1.531       .  S
C85          C89   1.539       .  S
C85         C200   1.524       .  S
C86          H93   1.086       .  S
C86          C87   1.367       .  D
C87          C88   1.543       .  S
C87         C190   1.484       .  S
C88          C92   1.542       .  S
C88          C90   1.539       .  S
C88          H94   1.109       .  S
C89          H95   1.080       .  S
C89          C90   1.365       .  D
C90         C393   1.481       .  S
C91          H96   1.086       .  S
C91          C92   1.367       .  D
C92         C210   1.484       .  S
O97         C113   1.275       .  A
O97        Zn103   2.027   1_565  S
C98         O114   1.277   1_655  A
C98         O111   1.277       .  A
C98         C423   1.486       .  S
O99         C112   1.276   1_554  A
O99        Cd106   2.072       .  S
O100        C118   1.276       .  A
O100       Cd109   2.066   1_554  S
O101        C115   1.272       .  A
O101       Cd105   2.046       .  S
O102        C113   1.272   1_554  A
O102       Cd105   2.042   1_455  S
Zn103       O114   2.035       .  S
Zn103       O116   2.027       .  S
Zn103       O108   1.951   1_556  S
O104        C115   1.278   1_545  A
O104       Cd109   2.102   1_554  S
Cd105       O107   2.041   1_655  S
Cd105       O108   1.975   1_665  S
Cd106       O110   2.082       .  S
Cd106       O119   2.063       .  S
Cd106       O108   2.005       .  S
O107        C117   1.271       .  A
O108       Cd109   2.003   1_454  S
Cd109       O111   2.075       .  S
O110        C117   1.274   1_545  A
C112        O116   1.275       .  A
C112        C243   1.486       .  S
C113        C383   1.475       .  S
C115        C313   1.486       .  S
C117        C213   1.477       .  S
C118        O119   1.275   1_655  A
C118        C270   1.472       .  S
O120        C136   1.274       .  A
O120       Zn126   2.004       .  S
C121        O137   1.275       .  A
C121        O134   1.279       .  A
C121        C323   1.490       .  S
O122        C135   1.275       .  A
O122       Cd129   2.089   1_545  S
O123        C141   1.279   1_545  A
O123       Cd132   2.096       .  S
O124        C138   1.272       .  A
O124       Cd128   2.046       .  S
O125        C136   1.274       .  A
O125       Cd128   2.066   1_545  S
Zn126       O137   2.027       .  S
Zn126       O139   2.027       .  S
Zn126       O131   1.933       .  S
O127        C138   1.280   1_545  A
O127       Cd132   2.110       .  S
Cd128       O130   2.061       .  S
Cd128       O131   2.002   1_565  S
Cd129       O133   2.074       .  S
Cd129       O142   2.048       .  S
Cd129       O131   2.007   1_565  S
O130        C140   1.273       .  A
O131       Cd132   2.018       .  S
Cd132       O134   2.095       .  S
O133        C140   1.275       .  A
C135        O139   1.276       .  A
C135        C233   1.490       .  S
C136        C413   1.478       .  S
C138        C293   1.482       .  S
C140        C443   1.478       .  S
C141        O142   1.274       .  A
C141        C193   1.483       .  S
O143        C159   1.275       .  A
O143       Zn149   2.027       .  S
C144        O160   1.275       .  A
C144        O157   1.276       .  A
C144        C463   1.482       .  S
O145        C158   1.274       .  A
O145       Cd152   2.069       .  S
O146        C164   1.276       .  A
O146       Cd155   2.084       .  S
O147        C161   1.275   1_554  A
O147       Cd151   2.062       .  S
O148        C159   1.274       .  A
O148       Cd151   2.056       .  S
Zn149       O160   2.018   1_554  S
Zn149       O162   2.002       .  S
Zn149       O154   1.946       .  S
O150        C161   1.275       .  A
O150       Cd155   2.064       .  S
Cd151       O153   2.068       .  S
Cd151       O154   1.993       .  S
Cd152       O156   2.078       .  S
Cd152       O165   2.066       .  S
Cd152       O154   1.996       .  S
O153        C163   1.273       .  A
O154       Cd155   2.006   1_554  S
Cd155       O157   2.076       .  S
O156        C163   1.277       .  A
C158        O162   1.274       .  A
C158        C300   1.479       .  S
C159        C263   1.480       .  S
C161        C220   1.477       .  S
C163        C343   1.484       .  S
C164        O165   1.276   1_556  A
C164        C363   1.484       .  S
O166        C182   1.273       .  A
O166       Zn172   1.995   1_455  S
C167        O183   1.273       .  A
C167        O180   1.273       .  A
C167        C453   1.478       .  S
O168        C181   1.275       .  A
O168       Cd175   2.083       .  S
O169        C187   1.271       .  A
O169       Cd178   2.033       .  S
O170        C184   1.276   1_455  A
O170       Cd174   2.081       .  S
O171        C182   1.275       .  A
O171       Cd174   2.068       .  S
Zn172       O183   2.006       .  S
Zn172       O185   1.992   1_655  S
Zn172       O177   1.921   1_655  S
O173        C184   1.274       .  A
O173       Cd178   2.062       .  S
Cd174       O176   2.064       .  S
Cd174       O177   1.998       .  S
Cd175       O179   2.062       .  S
Cd175       O188   2.063       .  S
Cd175       O177   2.009       .  S
O176        C186   1.275       .  A
O177       Cd178   1.987   1_455  S
Cd178       O180   2.061       .  S
O179        C186   1.274       .  A
C181        O185   1.272       .  A
C181        C373   1.478       .  S
C182        C203   1.477       .  S
C184        C250   1.481       .  S
C186        C330   1.474       .  S
C187        O188   1.274   1_655  A
C187        C403   1.470       .  S
C189        C190   1.405       .  A
C189        C194   1.403       .  A
C189        H195   1.080       .  S
C190        C191   1.403       .  A
C191        C192   1.392       .  A
C191        H196   1.083       .  S
C192        C193   1.406       .  A
C192        H197   1.083       .  S
C193        C194   1.406       .  A
C194        H198   1.083   1_565  S
C199        C200   1.409       .  A
C199        C204   1.392       .  A
C199        H205   1.076       .  S
C200        C201   1.409       .  A
C201        C202   1.397       .  A
C201        H206   1.083       .  S
C202        C203   1.403       .  A
C202        H207   1.083       .  S
C203        C204   1.403       .  A
C204        H208   1.083       .  S
C209        C210   1.405       .  A
C209        C214   1.390       .  A
C209        H215   1.082       .  S
C210        C211   1.405       .  A
C211        C212   1.402       .  A
C211        H216   1.081       .  S
C212        C213   1.405       .  A
C212        H217   1.082   1_565  S
C213        C214   1.404       .  A
C214        H218   1.083   1_455  S
C219        C220   1.403       .  A
C219        C224   1.395       .  A
C219        H225   1.083       .  S
C220        C221   1.404   1_556  A
C221        C222   1.396       .  A
C221        H226   1.082       .  S
C222        C223   1.409   1_554  A
C222        H227   1.082       .  S
C223        C224   1.409       .  A
C224        H228   1.080       .  S
C229        C230   1.408       .  A
C229        C234   1.410       .  A
C229        H235   1.082       .  S
C230        C231   1.408       .  A
C231        C232   1.391       .  A
C231        H236   1.082       .  S
C232        C233   1.402       .  A
C232        H237   1.083       .  S
C233        C234   1.411       .  A
C234        H238   1.083       .  S
C239        C240   1.401       .  A
C239        C244   1.403       .  A
C239        H245   1.083       .  S
C240        C241   1.406   1_556  A
C241        C242   1.396       .  A
C241        H246   1.083       .  S
C242        C243   1.405   1_554  A
C242        H247   1.083       .  S
C243        C244   1.410       .  A
C244        H248   1.083       .  S
C249        C250   1.406       .  A
C249        C254   1.400       .  A
C249        H255   1.083   1_655  S
C250        C251   1.407       .  A
C251        C252   1.397       .  A
C251        H256   1.083       .  S
C252        C253   1.403       .  A
C252        H257   1.083       .  S
C253        C254   1.401       .  A
C254        H258   1.081   1_655  S
C259        C260   1.405       .  A
C259        C264   1.390       .  A
C259        H265   1.083       .  S
C260        C261   1.405       .  A
C261        C262   1.404       .  A
C261        H266   1.082       .  S
C262        C263   1.408       .  A
C262        H267   1.084       .  S
C263        C264   1.403       .  A
C264        H268   1.082       .  S
C269        C270   1.401       .  A
C269        C274   1.393       .  A
C269        H275   1.083   1_554  S
C270        C271   1.403   1_655  A
C271        C272   1.396   1_455  A
C271        H276   1.083       .  S
C272        C273   1.409       .  A
C272        H277   1.078   1_655  S
C273        C274   1.409       .  A
C274        H278   1.083       .  S
C279        C280   1.400   1_545  A
C279        C284   1.393       .  A
C279        H285   1.076       .  S
C280        C281   1.409       .  A
C281        C282   1.402   1_564  A
C281        H286   1.082       .  S
C282        C283   1.405       .  A
C282        H287   1.082   1_545  S
C283        C284   1.407   1_556  A
C284        H288   1.082   1_554  S
C289        C290   1.403       .  A
C289        C294   1.394       .  A
C289        H295   1.083       .  S
C290        C291   1.407       .  A
C291        C292   1.406   1_565  A
C291        H296   1.083   1_565  S
C292        C293   1.406   1_545  A
C292        H297   1.083       .  S
C293        C294   1.406       .  A
C294        H298   1.084       .  S
C299        C300   1.404       .  A
C299        C304   1.399       .  A
C299        H305   1.083       .  S
C300        C301   1.402       .  A
C301        C302   1.393       .  A
C301        H306   1.083       .  S
C302        C303   1.410       .  A
C302        H307   1.077       .  S
C303        C304   1.410       .  A
C304        H308   1.083       .  S
C309        C310   1.406       .  A
C309        C314   1.405   1_565  A
C309        H315   1.076   1_565  S
C310        C311   1.405       .  A
C311        C312   1.392       .  A
C311        H316   1.083       .  S
C312        C313   1.406       .  A
C312        H317   1.083       .  S
C313        C314   1.407   1_565  A
C314        H318   1.083       .  S
C319        C320   1.405       .  A
C319        C324   1.400       .  A
C319        H325   1.083       .  S
C320        C321   1.402       .  A
C321        C322   1.404       .  A
C321        H326   1.083       .  S
C322        C323   1.411       .  A
C322        H327   1.083       .  S
C323        C324   1.406       .  A
C324        H328   1.083       .  S
C329        C330   1.404       .  A
C329        C334   1.399       .  A
C329        H335   1.083       .  S
C330        C331   1.400       .  A
C331        C332   1.393       .  A
C331        H336   1.083       .  S
C332        C333   1.410       .  A
C332        H337   1.083       .  S
C333        C334   1.409       .  A
C334        H338   1.079       .  S
C339        C340   1.402       .  A
C339        C344   1.402       .  A
C339        H345   1.083       .  S
C340        C341   1.407       .  A
C341        C342   1.394       .  A
C341        H346   1.083       .  S
C342        C343   1.404       .  A
C342        H347   1.083       .  S
C343        C344   1.410       .  A
C344        H348   1.082       .  S
C349        C350   1.403       .  A
C349        C354   1.397       .  A
C349        H355   1.082       .  S
C350        C351   1.408   1_556  A
C351        C352   1.397       .  A
C351        H356   1.082       .  S
C352        C353   1.403   1_455  A
C352        H357   1.080   1_455  S
C353        C354   1.408   1_654  A
C354        H358   1.082       .  S
C359        C360   1.407   1_554  A
C359        C364   1.393       .  A
C359        H365   1.081       .  S
C360        C361   1.407       .  A
C361        C362   1.405       .  A
C361        H366   1.082       .  S
C362        C363   1.408       .  A
C362        H367   1.082       .  S
C363        C364   1.403   1_556  A
C364        H368   1.083       .  S
C369        C370   1.404       .  A
C369        C374   1.389       .  A
C369        H375   1.083       .  S
C370        C371   1.404       .  A
C371        C372   1.405       .  A
C371        H376   1.082       .  S
C372        C373   1.407       .  A
C372        H377   1.083       .  S
C373        C374   1.403       .  A
C374        H378   1.083   1_455  S
C379        C380   1.410       .  A
C379        C384   1.398       .  A
C379        H385   1.081       .  S
C380        C381   1.407   1_556  A
C381        C382   1.391       .  A
C381        H386   1.083       .  S
C382        C383   1.403   1_554  A
C382        H387   1.083       .  S
C383        C384   1.403       .  A
C384        H388   1.083       .  S
C389        C390   1.401   1_455  A
C389        C394   1.392   1_545  A
C389        H395   1.081   1_455  S
C390        C391   1.407   1_655  A
C391        C392   1.400       .  A
C391        H396   1.084   1_455  S
C392        C393   1.404   1_545  A
C392        H397   1.082       .  S
C393        C394   1.404       .  A
C394        H398   1.084       .  S
C399        C400   1.409       .  A
C399        C404   1.388       .  A
C399        H405   1.077       .  S
C400        C401   1.408       .  A
C401        C402   1.394   1_655  A
C401        H406   1.083   1_655  S
C402        C403   1.402   1_455  A
C402        H407   1.083       .  S
C403        C404   1.402       .  A
C404        H408   1.083       .  S
C409        C410   1.402       .  A
C409        C414   1.402       .  A
C409        H415   1.083       .  S
C410        C411   1.403       .  A
C411        C412   1.390       .  A
C411        H416   1.083       .  S
C412        C413   1.404       .  A
C412        H417   1.083       .  S
C413        C414   1.409       .  A
C414        H418   1.083       .  S
C419        C420   1.399       .  A
C419        C424   1.398       .  A
C419        H425   1.084       .  S
C420        C421   1.401       .  A
C421        C422   1.401   1_655  A
C421        H426   1.082   1_655  S
C422        C423   1.409   1_455  A
C422        H427   1.083       .  S
C423        C424   1.408       .  A
C424        H428   1.082       .  S
C429        C430   1.406       .  A
C429        C434   1.397       .  A
C429        H435   1.083       .  S
C430        C431   1.409       .  A
C431        C432   1.400       .  A
C431        H436   1.079       .  S
C432        C433   1.399       .  A
C432        H437   1.084       .  S
C433        C434   1.401       .  A
C434        H438   1.083       .  S
C439        C440   1.411       .  A
C439        C444   1.396       .  A
C439        H445   1.078       .  S
C440        C441   1.409       .  A
C441        C442   1.398       .  A
C441        H446   1.083       .  S
C442        C443   1.404       .  A
C442        H447   1.084       .  S
C443        C444   1.401       .  A
C444        H448   1.083       .  S
C449        C450   1.401       .  A
C449        C454   1.395       .  A
C449        H455   1.084       .  S
C450        C451   1.401       .  A
C451        C452   1.397       .  A
C451        H456   1.083       .  S
C452        C453   1.407       .  A
C452        H457   1.083       .  S
C453        C454   1.406       .  A
C454        H458   1.082       .  S
C459        C460   1.402       .  A
C459        C464   1.396       .  A
C459        H465   1.083       .  S
C460        C461   1.400       .  A
C461        C462   1.400       .  A
C461        H466   1.082       .  S
C462        C463   1.408       .  A
C462        H467   1.082       .  S
C463        C464   1.406       .  A
C464        H468   1.084       .  S
