geometry optimzed in LAMMPS
_audit_creation_date              2020-11-30 
_audit_creation_method            'lammps2cif' 
_symmetry_space_group_name_H-M    'P1' 
_symmetry_Int_Tables_number       1 
_symmetry_cell_setting            triclinic 
loop_ 
_symmetry_equiv_pos_as_xyz 
  x,y,z 
_cell_length_a                    28.24892079 
_cell_length_b                    28.434398432943 
_cell_length_c                    28.99126051228113 
_cell_angle_alpha                 89.90175315981364 
_cell_angle_beta                  90.2363781535523 
_cell_angle_gamma                 89.93041024253614 
loop_ 
_atom_site_label 
_atom_site_type_symbol 
_atom_site_fract_x 
_atom_site_fract_y 
_atom_site_fract_z 
_atom_site_charge 
C1          C  0.33125452  0.33236448  0.16003017    -0.01400
C2          C  0.32066673  0.09795651  0.39432055    -0.01400
C3          C  0.10494320  0.10829115  0.14542529    -0.01400
C4          C  0.10586510  0.32869357  0.39998966    -0.01400
C5          C  0.32730557  0.11085714  0.64755270    -0.01400
C6          C  0.09054907  0.11688671  0.90024616    -0.01400
C7          C  0.09573055  0.32480980  0.65248507    -0.01400
C8          C  0.32516722  0.32846220  0.88157807    -0.01400
C9          C  0.36161939  0.36082272  0.12643681     0.43600
N10         N  0.37877272  0.40807128  0.07065285     0.02500
C11         C  0.57686653  0.41292298  0.93061874    -0.05400
H12         H  0.60978626  0.43939168  0.10556693     0.07900
C13         C  0.52385538  0.58999902  0.09611022    -0.05800
Co14       Co  0.46602998  0.37807489  0.01876556     0.74200
N15         N  0.54967884  0.41840641  0.06726772    -0.25000
Co16       Co  0.54624058  0.47061859  0.01690838     0.74100
C17         C  0.56941800  0.57467409  0.11609872     0.43700
N18         N  0.40351775  0.54898810  0.06908836     0.02100
N19         N  0.54439777  0.52326627  0.06689285     0.02200
N20         N  0.52708108  0.35132076  0.93449107    -0.45800
H21         H  0.42762534  0.31520929  0.11072506     0.07900
N22         N  0.52159923  0.38153332  0.06816223     0.02500
N23         N  0.54284820  0.52287000  0.96699021     0.02200
C24         C  0.56431061  0.57264153  0.91497831     0.43800
N25         N  0.37395021  0.51319385  0.06989570    -0.24400
C26         C  0.40214795  0.34364793  0.93617211    -0.05300
N27         N  0.34684501  0.39938105  0.10306641    -0.45500
N28         N  0.57712758  0.53324961  0.93775294    -0.45700
C29         C  0.35645088  0.35736535  0.91529876     0.43600
N30         N  0.51754883  0.38271446  0.96693778     0.02400
N31         N  0.37178565  0.51205781  0.96846614    -0.24400
N32         N  0.41352202  0.37690720  0.07019901    -0.24900
N33         N  0.40223131  0.54719225  0.96716560     0.02100
H34         H  0.31183771  0.49376065  0.92649023     0.08000
H35         H  0.49766775  0.61806048  0.92822404     0.08000
N36         N  0.54702203  0.41860225  0.96604810    -0.25000
N37         N  0.51093358  0.55572737  0.06656273    -0.24600
N38         N  0.37599120  0.40637139  0.96952529     0.02500
C39         C  0.57446235  0.36775172  0.12175587     0.43800
C40         C  0.34442281  0.51897977  0.10540617    -0.05800
N41         N  0.50823240  0.55396000  0.96649435    -0.24600
H42         H  0.50557077  0.62311046  0.10057891     0.08000
N43         N  0.53612699  0.34960580  0.09900772    -0.45800
H44         H  0.31632735  0.49478342  0.11347648     0.08000
C45         C  0.35576454  0.55999795  0.90886285     0.43700
C46         C  0.40574309  0.34563110  0.10396038    -0.05300
Co47       Co  0.37424360  0.46004522  0.01966116     0.73800
N48         N  0.39415415  0.58028165  0.10192910    -0.45500
C49         C  0.56395484  0.36783211  0.90934017     0.43900
N50         N  0.34245633  0.39622320  0.93874287    -0.45500
Co51       Co  0.45577545  0.55249976  0.01737078     0.73900
C52         C  0.51801987  0.58638043  0.93422734    -0.05800
C53         C  0.58266502  0.41361072  0.09983607    -0.05400
N54         N  0.41110155  0.37565821  0.96918648    -0.24900
N55         N  0.57992618  0.53373008  0.09491199    -0.45700
H56         H  0.60628931  0.43586242  0.92282896     0.08000
C57         C  0.34114114  0.51716146  0.93349351    -0.05800
Cl58       Cl  0.46055067  0.46528128  0.01833121    -0.48800
C59         C  0.35784405  0.56352361  0.12794109     0.43700
H60         H  0.42365215  0.31293854  0.92939962     0.07900
N61         N  0.39370551  0.57671117  0.93249659    -0.45500
C62         C  0.32503671  0.59256491  0.16001971    -0.01400
C63         C  0.10113008  0.82433710  0.15569213    -0.01400
C64         C  0.09391615  0.60266889  0.38441833    -0.01400
C65         C  0.32743189  0.82831475  0.39001207    -0.01400
C66         C  0.35544561  0.85999706  0.42323105     0.43600
N67         N  0.40460508  0.88021043  0.47691554     0.02500
C68         C  0.40547707  0.08581937  0.60595128    -0.05400
H69         H  0.42073756  0.11599800  0.43520668     0.07900
C70         C  0.58074540  0.01960178  0.43961611    -0.05800
Co71       Co  0.37438690  0.96865868  0.52542572     0.74200
N72         N  0.41153269  0.05180109  0.47375967    -0.25000
Co73       Co  0.46562727  0.05105858  0.52340095     0.74100
C74         C  0.56651534  0.06383372  0.41703501     0.43700
N75         N  0.54495338  0.90580581  0.47636541     0.02100
N76         N  0.51790675  0.04700753  0.47214598     0.02200
N77         N  0.34490057  0.03447220  0.60531758    -0.45800
H78         H  0.30882568  0.92535754  0.43812087     0.07900
N79         N  0.37771185  0.01985361  0.47391320     0.02500
N80         N  0.51949847  0.04906749  0.57378101     0.02200
C81         C  0.56850773  0.06810061  0.62858402     0.43800
N82         N  0.51085763  0.87419583  0.47830266    -0.24400
C83         C  0.33860576  0.90790846  0.60779865    -0.05300
N84         N  0.39528392  0.84696664  0.44608328    -0.45500
N85         N  0.52947807  0.08202463  0.60470370    -0.45700
C86         C  0.35332176  0.86392633  0.63056730     0.43600
N87         N  0.37790209  0.02262963  0.57488367     0.02400
N88         N  0.51007224  0.87894408  0.57857045    -0.24400
N89         N  0.37295014  0.91440123  0.47650657    -0.24900
N90         N  0.54516047  0.90943116  0.57690894     0.02100
H91         H  0.49730904  0.81790269  0.62063295     0.08000
H92         H  0.61351799  0.00173427  0.61484860     0.08000
N93         N  0.41323231  0.05293958  0.57401319    -0.25000
N94         N  0.54906278  0.01234202  0.47316072    -0.24600
N95         N  0.40391692  0.88315690  0.57781660     0.02500
C96         C  0.35693879  0.06779014  0.41957218     0.43800
C97         C  0.52158490  0.83879615  0.44941229    -0.05800
N98         N  0.55052526  0.01440374  0.57440095    -0.24600
H99         H  0.61157561  0.99793153  0.43356373     0.08000
N100        N  0.34423090  0.02865547  0.44301471    -0.45800
H101        H  0.50205987  0.80625442  0.44634441     0.08000
C102        C  0.56467312  0.86249176  0.63256981     0.43700
C103        C  0.34048662  0.90480812  0.44408049    -0.05300
Co104      Co  0.45723837  0.87847475  0.52794236     0.73800
N105        N  0.57937368  0.89306918  0.44800751    -0.45500
C106        C  0.36024488  0.07363208  0.62756814     0.43900
N107        N  0.39342270  0.85055356  0.60874905    -0.45500
Co108      Co  0.54813320  0.96051249  0.52503529     0.73900
C109        C  0.58254416  0.02299901  0.60781646    -0.05800
C110        C  0.40114920  0.08393126  0.44124898    -0.05400
N111        N  0.37215845  0.91709060  0.57640839    -0.24900
N112        N  0.52709648  0.07854400  0.43939959    -0.45700
H113        H  0.42689169  0.11694236  0.61081924     0.08000
C114        C  0.51865215  0.84848205  0.61296814    -0.05800
Cl115      Cl  0.46136567  0.96467615  0.52535293    -0.48800
C116        C  0.56687150  0.85166982  0.42815493     0.43700
H117        H  0.30633597  0.92792449  0.61195162     0.07900
N118        N  0.57862622  0.90027684  0.60773611    -0.45500
C119        C  0.59565215  0.33697313  0.87860771    -0.01400
C120        C  0.81842981  0.32726521  0.65427245    -0.01400
C121        C  0.59901877  0.10085762  0.65909529    -0.01400
C122        C  0.82318202  0.10735855  0.89603050    -0.01400
C123        C  0.32771130  0.58526433  0.87021208    -0.01400
C124        C  0.32304126  0.83057411  0.65999288    -0.01400
C125        C  0.09401698  0.59414417  0.66266482    -0.01400
C126        C  0.09862769  0.84270724  0.87991497    -0.01400
C127        C  0.60358766  0.81780175  0.40805354    -0.01400
C128        C  0.82468432  0.60235081  0.38269704    -0.01400
C129        C  0.60765711  0.60494436  0.13871141    -0.01400
C130        C  0.82278089  0.83017895  0.15858487    -0.01400
C131        C  0.59774074  0.60265110  0.88543525    -0.01400
C132        C  0.82612697  0.60459356  0.65365039    -0.01400
C133        C  0.59808576  0.83258695  0.66256969    -0.01400
C134        C  0.82867029  0.83100743  0.89008221    -0.01400
C135        C  0.07276918  0.07330081  0.11994999     0.43600
N136        N  0.02237759  0.01782923  0.10584754     0.02500
C137        C  0.01961304  0.88688810  0.90311560    -0.05400
H138        H  0.99182730  0.06518493  0.88375122     0.07900
C139        C  0.84228988  0.05313330  0.97121689    -0.05800
Co140      Co  0.04988307  0.96520074  0.02000105     0.74200
N141        N  0.01054732  0.01960230  0.93946745    -0.25000
Co142      Co  0.95779963  0.96881347  0.94042315     0.74100
C143        C  0.85434378  0.07512556  0.92667210     0.43700
N144        N  0.88015020  0.01878731  0.08147513     0.02100
N145        N  0.90469351  0.02002328  0.94375475     0.02200
N146        N  0.07929461  0.88500779  0.95477730    -0.45800
H147        H  0.11536367  0.05449599  0.05472428     0.07900
N148        N  0.04699005  0.01727371  0.96785185     0.02500
N149        N  0.90556787  0.91782694  0.94290336     0.02200
C150        C  0.85793439  0.86239896  0.92252152     0.43800
N151        N  0.91549453  0.01887198  0.11136360    -0.24400
C152        C  0.08471133  0.88150966  0.08239567    -0.05300
N153        N  0.03364215  0.05109912  0.13624205    -0.45500
N154        N  0.89613326  0.88739990  0.90963348    -0.45700
C155        C  0.07226716  0.86117663  0.12763379     0.43600
N156        N  0.04556831  0.91477133  0.96762112     0.02400
N157        N  0.91336790  0.91636808  0.11350872    -0.24400
N158        N  0.05253090  0.01608908  0.07123155    -0.24900
N159        N  0.87906880  0.91660183  0.08238368     0.02100
H160        H  0.92187329  0.87893204  0.17797546     0.08000
H161        H  0.81296137  0.87362289  0.98830632     0.08000
N162        N  0.01072134  0.91723902  0.93726316    -0.25000
N163        N  0.87448827  0.01930503  0.97820446    -0.24600
N164        N  0.02125416  0.91472285  0.10781373     0.02500
C165        C  0.06315492  0.07553860  0.92206180     0.43800
C166        C  0.90828833  0.05356400  0.14175392    -0.05800
N167        N  0.87501092  0.91610491  0.97717767    -0.24600
H168        H  0.81385342  0.06004373  0.99480164     0.08000
N169        N  0.07935849  0.04960620  0.95831761    -0.45800
H170        H  0.93212301  0.06129227  0.16980243     0.08000
C171        C  0.85557442  0.86518110  0.13278858     0.43700
C172        C  0.08529114  0.04923659  0.07707864    -0.05300
Co173      Co  0.96828057  0.96689511  0.11046160     0.73800
N174        N  0.84787137  0.05136150  0.09065982    -0.45500
C175        C  0.06487163  0.86448311  0.91490189     0.43900
N176        N  0.03247806  0.88412843  0.14096695    -0.45500
Co177      Co  0.87654428  0.96747651  0.02984886     0.73900
C178        C  0.84385325  0.88167550  0.96784245    -0.05800
C179        C  0.01656594  0.05579836  0.91031130    -0.05400
N180        N  0.05162749  0.91413755  0.07319426    -0.24900
N181        N  0.89358221  0.05202705  0.91197006    -0.45700
H182        H  0.99883347  0.88363465  0.87190216     0.08000
C183        C  0.90197185  0.88482715  0.14653016    -0.05800
Cl184      Cl  0.96312927  0.96681871  0.02530031    -0.48800
C185        C  0.86285713  0.07530130  0.12840106     0.43700
H186        H  0.11568182  0.87516319  0.06148334     0.07900
N187        N  0.84418621  0.88748257  0.09301628    -0.45500
C188        C  0.59570552  0.09223223  0.38198807    -0.01400
C189        C  0.83220053  0.11085345  0.15491380    -0.01400
C190        C  0.61162737  0.34084796  0.15173596    -0.01400
C191        C  0.81645492  0.34261859  0.38379176    -0.01400
C192        C  0.06293281  0.35544033  0.62153451     0.43600
N193        N  0.00806089  0.40591947  0.60349159     0.02500
C194        C  0.87306934  0.41509729  0.40341701    -0.05400
H195        H  0.06083112  0.43141609  0.38316698     0.07900
C196        C  0.04673033  0.58570298  0.46266247    -0.05800
Co197      Co  0.95607289  0.37845693  0.51659982     0.74200
N198        N  0.01212313  0.41506450  0.43706982    -0.25000
Co199      Co  0.96177540  0.46978100  0.43640248     0.74100
C200        C  0.06850806  0.57070048  0.41899249     0.43700
N201        N  0.01107097  0.54739881  0.57731721     0.02100
N202        N  0.01466688  0.52095753  0.43972601     0.02200
N203        N  0.87173208  0.35413951  0.45325724    -0.45800
H204        H  0.04752286  0.31475194  0.55345635     0.07900
N205        N  0.00846881  0.37940885  0.46592519     0.02500
N206        N  0.91150158  0.52398590  0.43664363     0.02200
C207        C  0.85767542  0.57363405  0.41483549     0.43800
N208        N  0.00931126  0.51207060  0.60680402    -0.24400
C209        C  0.87137705  0.34410268  0.57766161    -0.05300
N210        N  0.04007076  0.39498856  0.63560307    -0.45500
N211        N  0.88127502  0.53411762  0.40288933    -0.45700
C212        C  0.85201130  0.35648725  0.62319713     0.43600
N213        N  0.90554534  0.38454827  0.46401227     0.02400
N214        N  0.90770290  0.51455196  0.60540431    -0.24400
N215        N  0.00723064  0.37541193  0.56932882    -0.24900
N216        N  0.90914406  0.54935972  0.57511037     0.02100
H217        H  0.87054638  0.50538318  0.66943660     0.08000
H218        H  0.87095939  0.61922108  0.47969993     0.08000
N219        N  0.90786207  0.41977627  0.43445879    -0.25000
N220        N  0.01409446  0.55286578  0.47273266    -0.24600
N221        N  0.90483241  0.40767928  0.60239950     0.02500
C222        C  0.06761995  0.36015365  0.42238796     0.43800
C223        C  0.04053873  0.51978581  0.64039803    -0.05800
N224        N  0.91068124  0.55512411  0.47029610    -0.24600
H225        H  0.05210060  0.61805582  0.48151828     0.08000
N226        N  0.04007493  0.34588306  0.45793437    -0.45800
H227        H  0.04377747  0.49707512  0.66991904     0.08000
C228        C  0.85849727  0.57231922  0.62574703     0.43700
C229        C  0.04076545  0.34309198  0.57696797    -0.05300
Co230      Co  0.95738800  0.46004354  0.60503937     0.73800
N231        N  0.04162001  0.58032687  0.59033756    -0.45500
C232        C  0.84910061  0.37105706  0.41542349     0.43900
N233        N  0.87529212  0.39608249  0.63606216    -0.45500
Co234      Co  0.96121549  0.55189748  0.52396513     0.73900
C235        C  0.87782474  0.58780476  0.45982104    -0.05800
C236        C  0.04933347  0.40713532  0.40940482    -0.05400
N237        N  0.90396247  0.37719142  0.56815647    -0.24900
N238        N  0.04539457  0.53096489  0.40664305    -0.45700
H239        H  0.86775262  0.43773939  0.37382368     0.08000
C240        C  0.87637539  0.52551687  0.63828795    -0.05800
Cl241      Cl  0.95904988  0.46510858  0.52055795    -0.48800
C242        C  0.06308957  0.56500854  0.62952753     0.43700
H243        H  0.86539701  0.31272727  0.55743259     0.07900
N244        N  0.88086632  0.58460643  0.58643793    -0.45500
C245        C  0.70130937  0.43119011  0.20077836    -0.27100
C246        C  0.69530042  0.42258309  0.24809880     0.06500
C247        C  0.65247057  0.40287812  0.26272665     0.26100
C248        C  0.62212280  0.38243126  0.23054075    -0.11600
C249        C  0.63520983  0.37883015  0.18352104    -0.25500
C250        C  0.67090992  0.41045260  0.16842579     0.36900
C251        C  0.73709887  0.41912045  0.27900182     0.06500
F252        F  0.64306184  0.39708988  0.30825951    -0.19300
H253        H  0.59088447  0.36509953  0.24367067     0.16400
F254        F  0.68356420  0.41330166  0.12335487    -0.23000
H255        H  0.73299372  0.44868167  0.18869710     0.18100
C256        C  0.77439896  0.38996351  0.26526670     0.26100
C257        C  0.80200336  0.36754112  0.29815607    -0.11600
C258        C  0.79632294  0.37646518  0.34587116    -0.25600
C259        C  0.76732264  0.41532796  0.35786180     0.37100
C260        C  0.73538765  0.43370655  0.32528439    -0.27200
F261        F  0.77985542  0.37702363  0.22056741    -0.19300
H262        H  0.82451649  0.34039630  0.28475209     0.16300
F263        F  0.76236323  0.42818505  0.40267457    -0.23000
H264        H  0.70745421  0.45693354  0.33678299     0.18200
C265        C  0.72466599  0.27926098  0.10211799    -0.27100
C266        C  0.70415137  0.24118459  0.07946526     0.06500
C267        C  0.65490354  0.24186630  0.07201504     0.26100
C268        C  0.62701694  0.27837077  0.09012637    -0.11600
C269        C  0.64656409  0.31340115  0.11930779    -0.25500
C270        C  0.69701670  0.31297965  0.12394479     0.36900
C271        C  0.73256843  0.19705509  0.07773265     0.06500
F272        F  0.63325062  0.20551735  0.05021341    -0.19300
H273        H  0.58906987  0.27576558  0.08586377     0.16400
F274        F  0.72083818  0.33778513  0.15610681    -0.23000
H275        H  0.76222133  0.27882921  0.10995962     0.18100
C276        C  0.78088666  0.19734050  0.06548067     0.26100
C277        C  0.81210356  0.16383310  0.08439087    -0.11600
C278        C  0.79641222  0.13334552  0.11956007    -0.25600
C279        C  0.74652209  0.12553579  0.12104904     0.37100
C280        C  0.71532453  0.15780885  0.10127414    -0.27200
F281        F  0.79871558  0.23296998  0.03970544    -0.19300
H282        H  0.84956222  0.16678468  0.07711288     0.16300
F283        F  0.72689514  0.08815883  0.14285942    -0.23000
H284        H  0.67799873  0.15460667  0.10900893     0.18200
C285        C  0.90456873  0.28301050  0.30087925    -0.27100
C286        C  0.88208659  0.24018594  0.29197292     0.06500
C287        C  0.84312690  0.22731017  0.31878014     0.26100
C288        C  0.82436771  0.25849215  0.35073840    -0.11600
C289        C  0.84555296  0.30272379  0.35977064    -0.25500
C290        C  0.88862511  0.31260561  0.33623129     0.36900
C291        C  0.89238934  0.21213785  0.25027855     0.06500
F292        F  0.81950581  0.18668704  0.31014807    -0.19300
H293        H  0.79077444  0.24854096  0.36513134     0.16400
F294        F  0.91101764  0.35433261  0.34120643    -0.23000
H295        H  0.93286310  0.29495514  0.27871406     0.18100
C296        C  0.87593704  0.22837400  0.20758850     0.26100
C297        C  0.86232060  0.19642198  0.17340562    -0.11600
C298        C  0.86519230  0.14705663  0.18065366    -0.25600
C299        C  0.88993660  0.13221814  0.22128346     0.37100
C300        C  0.90321615  0.16449797  0.25521721    -0.27200
F301        F  0.86601692  0.27472624  0.20149215    -0.19300
H302        H  0.84457540  0.21198862  0.14449648     0.16300
F303        F  0.89175190  0.08622204  0.23371322    -0.23000
H304        H  0.91567174  0.15137251  0.28822737     0.18200
C305        C  0.53329711  0.19410320  0.32121326    -0.27100
C306        C  0.54910925  0.18796927  0.27584747     0.06500
C307        C  0.56315488  0.14302246  0.26230541     0.26100
C308        C  0.56974550  0.10742754  0.29499025    -0.11600
C309        C  0.56343046  0.11552171  0.34300065    -0.25500
C310        C  0.53775867  0.15743169  0.35384088     0.36900
C311        C  0.56177778  0.22868123  0.24597744     0.06500
F312        F  0.57538618  0.13479326  0.21777258    -0.19300
H313        H  0.58296862  0.07573715  0.28059252     0.16400
F314        F  0.52523058  0.16686006  0.39799023    -0.23000
H315        H  0.52085558  0.22827772  0.33233026     0.18100
C316        C  0.52856146  0.25539507  0.22104597     0.26100
C317        C  0.54324551  0.29118993  0.19043771    -0.11600
C318        C  0.59185761  0.30121393  0.18415226    -0.25600
C319        C  0.62453115  0.27478723  0.21148718     0.37100
C320        C  0.60963988  0.23918287  0.24100865    -0.27200
F321        F  0.48200832  0.24659090  0.22603390    -0.19300
H322        H  0.51620637  0.31122700  0.17283888     0.16300
F323        F  0.67148611  0.28423611  0.21127675    -0.23000
H324        H  0.63595263  0.21960973  0.26050795     0.18200
C325        C  0.74889011  0.25226709  0.45798305    -0.27100
C326        C  0.70278047  0.25738110  0.44085212     0.06500
C327        C  0.69101502  0.29808688  0.41661430     0.26100
C328        C  0.72664312  0.32736170  0.40060878    -0.11600
C329        C  0.77504884  0.32025565  0.41256122    -0.25500
C330        C  0.78437766  0.28447262  0.44587426     0.36900
C331        C  0.67496052  0.21513793  0.42997545     0.06500
F332        F  0.64638067  0.30384245  0.39980169    -0.19300
H333        H  0.71486070  0.35151653  0.37457844     0.16400
F334        F  0.82921569  0.27390741  0.45905641    -0.23000
H335        H  0.75869995  0.22049033  0.47638943     0.18100
C336        C  0.67718347  0.19866034  0.38470671     0.26100
C337        C  0.65002054  0.16098210  0.37114355    -0.11600
C338        C  0.62134352  0.13589775  0.40256286    -0.25600
C339        C  0.61882643  0.15289053  0.44858199     0.37100
C340        C  0.64482675  0.19303963  0.46155297    -0.27200
F341        F  0.70532298  0.21977477  0.35296706    -0.19300
H342        H  0.65251314  0.14999452  0.33549020     0.16300
F343        F  0.59147045  0.13205907  0.48093303    -0.23000
H344        H  0.64103216  0.20724185  0.49585414     0.18200
C345        C  0.76306860  0.02507447  0.23570079    -0.27100
C346        C  0.74385765  0.05674664  0.26749065     0.06500
C347        C  0.75222117  0.10483214  0.26144931     0.26100
C348        C  0.77953746  0.12051760  0.22489156    -0.11600
C349        C  0.80242130  0.08889083  0.19444224    -0.25500
C350        C  0.79358323  0.04026657  0.20057188     0.36900
C351        C  0.71192336  0.04155752  0.30510025     0.06500
F352        F  0.73188012  0.13708580  0.28960437    -0.19300
H353        H  0.78290562  0.15816578  0.22027489     0.16400
F354        F  0.81106413  0.00757005  0.17125608    -0.23000
H355        H  0.75337729  0.98874809  0.23740772     0.18100
C356        C  0.66712967  0.02247018  0.29542406     0.26100
C357        C  0.63049504  0.02712447  0.32791882    -0.11600
C358        C  0.63659713  0.05890683  0.36452635    -0.25600
C359        C  0.68404955  0.06313235  0.38083503     0.37100
C360        C  0.72144711  0.05619928  0.35027001    -0.27200
F361        F  0.65694760  0.00649864  0.25247917    -0.19300
H362        H  0.59562497  0.01358922  0.31985185     0.16300
F363        F  0.69412669  0.07997070  0.42358288    -0.23000
H364        H  0.75670473  0.06748861  0.36003830     0.18200
C365        C  0.68970817  0.91678116  0.71796927    -0.27100
C366        C  0.68963311  0.90125090  0.76387953     0.06500
C367        C  0.65220291  0.87348173  0.77909633     0.26100
C368        C  0.62057726  0.85449266  0.74744785    -0.11600
C369        C  0.62337854  0.86452538  0.69942582    -0.25500
C370        C  0.65555006  0.90073061  0.68646614     0.36900
C371        C  0.73409361  0.89873819  0.79055835     0.06500
F372        F  0.65082690  0.85807256  0.82346100    -0.19300
H373        H  0.59747436  0.82838926  0.76175929     0.16400
F374        F  0.66154314  0.91304630  0.64169011    -0.23000
H375        H  0.71883410  0.93798750  0.70550907     0.18100
C376        C  0.76796949  0.86674837  0.77534026     0.26100
C377        C  0.80020948  0.84763126  0.80622402    -0.11600
C378        C  0.80289860  0.86223995  0.85295949    -0.25600
C379        C  0.77367871  0.90095091  0.86552576     0.37100
C380        C  0.73774032  0.91667915  0.83548658    -0.27200
F381        F  0.76508470  0.84806731  0.73230989    -0.19300
H382        H  0.81915168  0.81787244  0.79313223     0.16300
F383        F  0.77390626  0.91805759  0.90909566    -0.23000
H384        H  0.71131326  0.94109793  0.84802333     0.18200
C385        C  0.77120714  0.69712836  0.57398602    -0.27100
C386        C  0.72395655  0.69569692  0.58837589     0.06500
C387        C  0.70749665  0.65517981  0.61047433     0.26100
C388        C  0.73947039  0.62172200  0.62651355    -0.11600
C389        C  0.78889941  0.62688354  0.61988100    -0.25500
C390        C  0.80326699  0.66241228  0.58817153     0.36900
C391        C  0.69596646  0.73951282  0.59238014     0.06500
F392        F  0.66142432  0.65112364  0.62302319    -0.19300
H393        H  0.72417819  0.59554577  0.64844211     0.16400
F394        F  0.84964104  0.67010714  0.57891528    -0.23000
H395        H  0.78441966  0.72774158  0.55588508     0.18100
C396        C  0.71428146  0.77640257  0.61886675     0.26100
C397        C  0.68386044  0.80912678  0.63858959    -0.11600
C398        C  0.63439431  0.80845021  0.62979614    -0.25600
C399        C  0.61812871  0.77617899  0.59589673     0.37100
C400        C  0.64797203  0.74050765  0.58018505    -0.27200
F401        F  0.76046986  0.77657910  0.63208764    -0.19300
H402        H  0.69983298  0.83078642  0.66462419     0.16300
F403        F  0.57156859  0.77243097  0.58525506    -0.23000
H404        H  0.63237344  0.71113426  0.56211066     0.18200
C405        C  0.91245824  0.66829548  0.73597106    -0.27100
C406        C  0.88639182  0.70883600  0.74661941     0.06500
C407        C  0.84635971  0.71948505  0.72008208     0.26100
C408        C  0.83011576  0.68815237  0.68693707    -0.11600
C409        C  0.85446247  0.64574499  0.67660946    -0.25500
C410        C  0.89804110  0.63801791  0.70014912     0.36900
C411        C  0.89090702  0.73253303  0.79194160     0.06500
F412        F  0.81847783  0.75665454  0.73112918    -0.19300
H413        H  0.79529850  0.69550372  0.67323187     0.16400
F414        F  0.92344695  0.59819309  0.69332550    -0.23000
H415        H  0.94167109  0.65789004  0.75791588     0.18100
C416        C  0.86276827  0.71552252  0.82762200     0.26100
C417        C  0.84713522  0.74554615  0.86219473    -0.11600
C418        C  0.86078041  0.79366323  0.86434265    -0.25600
C419        C  0.89664725  0.80770681  0.83246596     0.37100
C420        C  0.90982759  0.77790807  0.79580709    -0.27200
F421        F  0.84371532  0.67177960  0.82486519    -0.19300
H422        H  0.81952375  0.73091592  0.88300256     0.16300
F423        F  0.91099802  0.85302799  0.82961920    -0.23000
H424        H  0.93124540  0.79191299  0.76809251     0.18200
C425        C  0.55436030  0.72205616  0.83337272    -0.27100
C426        C  0.52540425  0.70550611  0.79807113     0.06500
C427        C  0.51128232  0.65818812  0.79873497     0.26100
C428        C  0.52907060  0.62762570  0.83261574    -0.11600
C429        C  0.56689386  0.64177307  0.86179218    -0.25500
C430        C  0.57770760  0.69072242  0.86234851     0.36900
C431        C  0.52913404  0.73154437  0.75431830     0.06500
F432        F  0.48574475  0.64017140  0.76320882    -0.19300
H433        H  0.51928335  0.59086206  0.83073091     0.16400
F434        F  0.61532455  0.70901924  0.88449681    -0.23000
H435        H  0.56656854  0.75822249  0.83258309     0.18100
C436        C  0.51167153  0.77749494  0.74925321     0.26100
C437        C  0.52877087  0.80663593  0.71397994    -0.11600
C438        C  0.56915711  0.79350366  0.68804693    -0.25600
C439        C  0.58646190  0.74674154  0.69461740     0.37100
C440        C  0.56415952  0.71579680  0.72441891    -0.27200
F441        F  0.48124519  0.79549375  0.78073588    -0.19300
H442        H  0.51543230  0.84229816  0.71200586     0.16300
F443        F  0.62865777  0.73159219  0.67843200    -0.23000
H444        H  0.57998308  0.68140353  0.72966519     0.18200
C445        C  0.73925021  0.52036124  0.71419620    -0.27100
C446        C  0.73721286  0.53977413  0.75853848     0.06500
C447        C  0.77201638  0.57180100  0.77206931     0.26100
C448        C  0.80357218  0.58951115  0.73978464    -0.11600
C449        C  0.80192170  0.57530040  0.69285961    -0.25500
C450        C  0.77331798  0.53567886  0.68251856     0.36900
C451        C  0.69263992  0.53962767  0.78474462     0.06500
F452        F  0.77095725  0.59148362  0.81472107    -0.19300
H453        H  0.82612479  0.61722999  0.75204471     0.16400
F454        F  0.77194029  0.51776204  0.63916354    -0.23000
H455        H  0.71204867  0.49617933  0.70283216     0.18100
C456        C  0.65721343  0.57036682  0.76996315     0.26100
C457        C  0.62341358  0.58654293  0.80074274    -0.11600
C458        C  0.62247039  0.57161489  0.84754855    -0.25600
C459        C  0.65440596  0.53453272  0.85977458     0.37100
C460        C  0.69008824  0.52040566  0.82911898    -0.27200
F461        F  0.65974906  0.59074759  0.72760971    -0.19300
H462        H  0.60230293  0.61513672  0.78774347     0.16300
F463        F  0.65864680  0.51925030  0.90386823    -0.23000
H464        H  0.71802717  0.49735695  0.84134098     0.18200
C465        C  0.65521939  0.68853790  0.97085671    -0.27100
C466        C  0.70113985  0.69262460  0.95302738     0.06500
C467        C  0.71661975  0.65930357  0.92118052     0.26100
C468        C  0.68465202  0.62780963  0.90199748    -0.11600
C469        C  0.63677699  0.62522612  0.91678856    -0.25500
C470        C  0.62459448  0.65277717  0.95581671     0.36900
C471        C  0.72795587  0.73716388  0.95588343     0.06500
F472        F  0.76052515  0.66240153  0.90249347    -0.19300
H473        H  0.69759167  0.60976733  0.87205339     0.16400
F474        F  0.58024010  0.65206817  0.97334333    -0.23000
H475        H  0.64154818  0.71547020  0.99339679     0.18100
C476        C  0.71068160  0.77555649  0.93078489     0.26100
C477        C  0.74199647  0.80762887  0.91157069    -0.11600
C478        C  0.79128521  0.80507656  0.92047210    -0.25600
C479        C  0.80626197  0.77303164  0.95523600     0.37100
C480        C  0.77552632  0.73741105  0.97011429    -0.27200
F481        F  0.66431385  0.77832488  0.91881206    -0.19300
H482        H  0.72659689  0.83130637  0.88682885     0.16300
F483        F  0.85265332  0.77011371  0.96736716    -0.23000
H484        H  0.78964064  0.70814416  0.98979079     0.18200
C485        C  0.70353469  0.65041559  0.05984167    -0.27100
C486        C  0.69894751  0.69857218  0.07047284     0.06500
C487        C  0.65392862  0.71523725  0.08340799     0.26100
C488        C  0.61837837  0.68326616  0.09489002    -0.11600
C489        C  0.62948253  0.63499221  0.09901281    -0.25500
C490        C  0.66747765  0.61870387  0.07190707     0.36900
C491        C  0.74137572  0.72875206  0.07789600     0.06500
F492        F  0.64602246  0.76164769  0.09113616    -0.19300
H493        H  0.58573248  0.69703327  0.10893494     0.16400
F494        F  0.67485734  0.57194348  0.06601505    -0.23000
H495        H  0.73652020  0.63691251  0.04629116     0.18100
C496        C  0.77740764  0.71284081  0.10742911     0.26100
C497        C  0.80703429  0.74481044  0.12964877    -0.11600
C498        C  0.80239743  0.79404469  0.12288590    -0.25600
C499        C  0.77144294  0.80870633  0.08659970     0.37100
C500        C  0.74111151  0.77637552  0.06515433    -0.27200
F501        F  0.78009855  0.66692972  0.12009364    -0.19300
H502        H  0.82974889  0.72979122  0.15563646     0.16300
F503        F  0.76216972  0.85482712  0.07879543    -0.23000
H504        H  0.71409412  0.78951149  0.04184623     0.18200
C505        C  0.77678799  0.52456380  0.28508496    -0.27100
C506        C  0.72925309  0.53896615  0.28341598     0.06500
C507        C  0.71010916  0.56096460  0.32228011     0.26100
C508        C  0.73963018  0.57608959  0.35798349    -0.11600
C509        C  0.78937185  0.56861752  0.35688012    -0.25500
C510        C  0.80618504  0.53723278  0.32224690     0.36900
C511        C  0.70268521  0.54090910  0.23901088     0.06500
F512        F  0.66383678  0.57389206  0.32300492    -0.19300
H513        H  0.72281087  0.59829493  0.38303151     0.16400
F514        F  0.85298898  0.52776979  0.31788624    -0.23000
H515        H  0.79217380  0.50662981  0.25578719     0.18100
C516        C  0.72196575  0.56579990  0.20184969     0.26100
C517        C  0.69274655  0.58271002  0.16671463    -0.11600
C518        C  0.64355232  0.57298329  0.16544582    -0.25600
C519        C  0.62627489  0.54145205  0.19949165     0.37100
C520        C  0.65505015  0.52721643  0.23643487    -0.27200
F521        F  0.76790886  0.57973144  0.20250779    -0.19300
H522        H  0.70905942  0.60796591  0.14438417     0.16300
F523        F  0.57996860  0.52887577  0.20039497    -0.23000
H524        H  0.63935550  0.50752379  0.26448000     0.18200
C525        C  0.86565504  0.66271407  0.26839756    -0.27100
C526        C  0.89851780  0.69510971  0.28486217     0.06500
C527        C  0.91316439  0.69144984  0.33123346     0.26100
C528        C  0.89509969  0.65570966  0.35990123    -0.11600
C529        C  0.85533452  0.62885144  0.34581769    -0.25500
C530        C  0.84025878  0.63509760  0.29908422     0.36900
C531        C  0.89704174  0.74099181  0.26062489     0.06500
F532        F  0.93890571  0.72641967  0.35066054    -0.19300
H533        H  0.90657390  0.65491445  0.39552772     0.16400
F534        F  0.79658486  0.62288437  0.28410635    -0.23000
H535        H  0.85137057  0.66702708  0.23381721     0.18100
C536        C  0.91488877  0.74686273  0.21570957     0.23700
C537        C  0.89497276  0.78065213  0.18576170    -0.11600
C538        C  0.85213077  0.80392527  0.19713232    -0.25600
C539        C  0.83491734  0.79620579  0.24272903     0.37100
C540        C  0.86026028  0.77005784  0.27473069    -0.27200
F541        F  0.94774831  0.71665491  0.19904558    -0.19300
H542        H  0.90893650  0.78347735  0.15114635     0.16300
F543        F  0.79010083  0.80570955  0.25552961    -0.23000
H544        H  0.84430437  0.76452905  0.30821068     0.18200
C545        C  0.60851729  0.70066217  0.23221602    -0.27100
C546        C  0.56679627  0.69252224  0.25640768     0.06500
C547        C  0.53636728  0.65645085  0.24180857     0.26100
C548        C  0.54677989  0.63061930  0.20163416    -0.11600
C549        C  0.58978869  0.63784897  0.17773797    -0.25500
C550        C  0.62129472  0.67227688  0.19571947     0.36900
C551        C  0.56272722  0.71619675  0.30143460     0.06500
F552        F  0.49892815  0.64385578  0.26820581    -0.19300
H553        H  0.52301758  0.60263665  0.19166876     0.16400
F554        F  0.66570039  0.67804025  0.17898474    -0.23000
H555        H  0.63356521  0.72681784  0.24433000     0.18100
C556        C  0.59762351  0.70565162  0.33392829     0.26100
C557        C  0.60945122  0.73813539  0.36734274    -0.11600
C558        C  0.58294866  0.77981220  0.37476309    -0.25600
C559        C  0.54525420  0.78873287  0.34340229     0.37100
C560        C  0.53595956  0.75750494  0.30667878    -0.27200
F561        F  0.62524387  0.66680353  0.32914699    -0.19300
H562        H  0.64157651  0.73069415  0.38592300     0.16300
F563        F  0.52037924  0.82947961  0.34513361    -0.23000
H564        H  0.51018381  0.76718576  0.28058939     0.18200
C565        C  0.71286148  0.84580702  0.33192706    -0.27100
C566        C  0.69430342  0.87830302  0.30060730     0.06500
C567        C  0.64819468  0.89513415  0.30770942     0.26100
C568        C  0.62183360  0.88012532  0.34601027    -0.11600
C569        C  0.63902352  0.84482402  0.37639898    -0.25500
C570        C  0.68503961  0.82713927  0.36697651     0.36900
C571        C  0.71895475  0.88333184  0.25571996     0.06500
F572        F  0.62704431  0.92280534  0.27562035    -0.19300
H573        H  0.58599814  0.89312629  0.34917397     0.16400
F574        F  0.70189829  0.78788203  0.38724586    -0.23000
H575        H  0.74730142  0.83034885  0.32595629     0.18100
C576        C  0.76455327  0.90266423  0.25298793     0.26100
C577        C  0.79386932  0.89304700  0.21495509    -0.11600
C578        C  0.78141768  0.85780432  0.18253722    -0.25600
C579        C  0.73358022  0.84091205  0.18461639     0.37100
C580        C  0.70276950  0.85573674  0.21925037    -0.27200
F581        F  0.78243342  0.92714512  0.28923677    -0.19300
H582        H  0.82963230  0.90664783  0.21572296     0.16300
F583        F  0.71764406  0.80384632  0.15990842    -0.23000
H584        H  0.66835868  0.83905768  0.22166904     0.18200
C585        C  0.64990432  0.71604675  0.47553196    -0.27100
C586        C  0.69701813  0.73132597  0.47991963     0.06500
C587        C  0.70460190  0.78023096  0.48511484     0.26100
C588        C  0.66954267  0.81198370  0.47025275    -0.11600
C589        C  0.62722865  0.79431507  0.45119327    -0.25500
C590        C  0.61395789  0.74869092  0.46586111     0.36900
C591        C  0.73649205  0.69965623  0.46504227     0.06500
F592        F  0.74803427  0.79693941  0.49664974    -0.19300
H593        H  0.67881964  0.84865077  0.46590846     0.16400
F594        F  0.56918859  0.73271792  0.45907732    -0.23000
H595        H  0.64132740  0.67899292  0.47457469     0.18100
C596        C  0.73793475  0.65107860  0.47467143     0.26100
C597        C  0.76972116  0.62160451  0.45112777    -0.11600
C598        C  0.79719051  0.63840668  0.41365540    -0.25600
C599        C  0.79596474  0.68773523  0.40565207     0.37100
C600        C  0.76848541  0.71729367  0.43265123    -0.27200
F601        F  0.70784641  0.63164086  0.50563639    -0.19300
H602        H  0.76957822  0.58438186  0.45915648     0.16300
F603        F  0.81756372  0.70883296  0.36972405    -0.23000
H604        H  0.76926777  0.75432072  0.42439026     0.18200
C605        C  0.02039249  0.69468677  0.71293641    -0.27100
C606        C  0.03189953  0.69190176  0.75996305     0.06500
C607        C  0.05114351  0.65026273  0.77711452     0.26100
C608        C  0.06673692  0.61559683  0.74693955    -0.11600
C609        C  0.06108868  0.61984054  0.69830906    -0.25500
C610        C  0.03260270  0.65807766  0.68273538     0.36900
C611        C  0.04081693  0.73496827  0.78691878     0.06500
F612        F  0.06345728  0.64698079  0.82237104    -0.19300
H613        H  0.08908055  0.59030225  0.76333256     0.16400
F614        F  0.02404957  0.66460468  0.63708347    -0.23000
H615        H  0.00555924  0.72687408  0.69899130     0.18100
C616        C  0.08262227  0.75909771  0.77737946     0.26100
C617        C  0.10047904  0.79144836  0.80855394    -0.11600
C618        C  0.07514544  0.80514438  0.84824585    -0.25600
C619        C  0.03257353  0.78052529  0.85790855     0.37100
C620        C  0.01640983  0.74506000  0.82785129    -0.27200
F621        F  0.10853371  0.74823242  0.73951247    -0.19300
H622        H  0.13468892  0.80651225  0.80127259     0.16300
F623        F  0.00849339  0.78740807  0.89768475    -0.23000
H624        H  0.98586915  0.72426566  0.83733929     0.18200
C625        C  0.27048826  0.71499302  0.61100058    -0.27100
C626        C  0.22761718  0.73369093  0.59553768     0.06500
C627        C  0.22582890  0.78153607  0.58406980     0.26100
C628        C  0.26424374  0.81082109  0.59535965    -0.11600
C629        C  0.30072925  0.79420411  0.62528534    -0.25500
C630        C  0.30571296  0.74435213  0.62805225     0.36900
C631        C  0.18488353  0.70707025  0.60888625     0.06500
F632        F  0.18537158  0.80077427  0.56712376    -0.19300
H633        H  0.26012056  0.84817534  0.58933252     0.16400
F634        F  0.34079036  0.72194153  0.65064336    -0.23000
H635        H  0.27313907  0.67761371  0.61812494     0.18100
C636        C  0.15665128  0.68212030  0.57754704     0.26100
C637        C  0.12613923  0.64633681  0.59334671    -0.11600
C638        C  0.12299175  0.63548446  0.64111116    -0.25600
C639        C  0.15011262  0.66355968  0.67188195     0.37100
C640        C  0.17925606  0.69898825  0.65599695    -0.27200
F641        F  0.15980444  0.69125700  0.53183827    -0.19300
H642        H  0.10767057  0.62626505  0.56755581     0.16300
F643        F  0.15183454  0.65424187  0.71776220    -0.23000
H644        H  0.20103099  0.71760371  0.68082360     0.18200
C645        C  0.12438682  0.90527927  0.76852225    -0.27100
C646        C  0.17331796  0.91058278  0.77561615     0.06500
C647        C  0.18920136  0.91830271  0.82121561     0.26100
C648        C  0.15901154  0.90813085  0.85840440    -0.11600
C649        C  0.11582292  0.88503771  0.84947882    -0.25500
C650        C  0.09504382  0.89434994  0.80580332     0.36900
C651        C  0.20722094  0.89681242  0.73860650     0.06500
F652        F  0.23536275  0.92790848  0.83012062    -0.19300
H653        H  0.17373702  0.90810137  0.89295714     0.16400
F654        F  0.04900832  0.88376321  0.79719348    -0.23000
H655        H  0.11003482  0.90362420  0.73386131     0.18100
C656        C  0.20125536  0.85331884  0.71660627     0.26100
C657        C  0.23785772  0.83346668  0.69145217    -0.11600
C658        C  0.28092834  0.85751333  0.68309681    -0.25600
C659        C  0.28599634  0.90240449  0.70392259     0.37100
C660        C  0.24953212  0.92143669  0.73107657    -0.27200
F661        F  0.16155177  0.82740172  0.72269672    -0.19300
H662        H  0.23279538  0.79750327  0.68074755     0.16300
F663        F  0.32787044  0.92561699  0.70268494    -0.23000
H664        H  0.25546530  0.95422816  0.74848467     0.18200
C665        C  0.21874461  0.52350551  0.82647069    -0.27100
C666        C  0.23376944  0.51208776  0.78174704     0.06500
C667        C  0.28277801  0.50437021  0.77496188     0.26100
C668        C  0.31540835  0.51923391  0.80882499    -0.11600
C669        C  0.29862089  0.54544383  0.84656879    -0.25500
C670        C  0.25144988  0.53649752  0.85986875     0.36900
C671        C  0.19934650  0.51703298  0.74283939     0.06500
F672        F  0.29930472  0.48787262  0.73417764    -0.19300
H673        H  0.35286484  0.51856304  0.80102927     0.16400
F674        F  0.23549743  0.54780682  0.90255778    -0.23000
H675        H  0.18172238  0.52719699  0.83493947     0.18100
C676        C  0.15093702  0.50699015  0.74872729     0.26100
C677        C  0.11727504  0.52651390  0.71906934    -0.11600
C678        C  0.13050682  0.55877416  0.68442851    -0.25600
C679        C  0.17901505  0.55781273  0.67160965     0.37100
C680        C  0.21301802  0.53942433  0.70179986    -0.27200
F681        F  0.13549739  0.48090479  0.78485938    -0.19300
H682        H  0.08065070  0.52180753  0.72847976     0.16300
F683        F  0.19422852  0.57611284  0.63102576    -0.23000
H684        H  0.24992598  0.54560649  0.69415679     0.18200
C685        C  0.22521671  0.67502744  0.87451864    -0.27100
C686        C  0.23041197  0.69581567  0.91774169     0.06500
C687        C  0.26639530  0.67976725  0.94725713     0.26100
C688        C  0.29615475  0.64247460  0.93386349    -0.11600
C689        C  0.29253726  0.62274898  0.88917112    -0.25500
C690        C  0.25679642  0.64109846  0.85949337     0.36900
C691        C  0.20491442  0.74061788  0.92490932     0.06500
F692        F  0.27490610  0.70243984  0.98730733    -0.19300
H693        H  0.32359385  0.63138350  0.95755311     0.16400
F694        F  0.25179938  0.62630589  0.81535562    -0.23000
H695        H  0.19862584  0.68804252  0.85058271     0.18100
C696        C  0.21818354  0.77804713  0.89675152     0.26100
C697        C  0.18513974  0.81177198  0.88393227    -0.11600
C698        C  0.13937426  0.81413268  0.90379647    -0.25600
C699        C  0.12878685  0.77923814  0.93746535     0.37100
C700        C  0.16060163  0.74205876  0.94647953    -0.27200
F701        F  0.26068961  0.77728268  0.87495970    -0.19300
H702        H  0.19501745  0.83177053  0.85415755     0.16300
F703        F  0.08558374  0.77767112  0.95765330    -0.23000
H704        H  0.14914402  0.71259828  0.96728419     0.18200
C705        C  0.37212876  0.65607255  0.76290789    -0.27100
C706        C  0.39517487  0.69317755  0.78457770     0.06500
C707        C  0.40508425  0.68952733  0.83181934     0.26100
C708        C  0.38882667  0.65074422  0.85722748    -0.11600
C709        C  0.35974883  0.61539879  0.83710709    -0.25500
C710        C  0.35220494  0.61963032  0.78834469     0.36900
C711        C  0.39348249  0.73920022  0.76063684     0.06500
F712        F  0.42686232  0.72543927  0.85418467    -0.19300
H713        H  0.39394468  0.65234930  0.89407370     0.16400
F714        F  0.31900223  0.59553199  0.76472093    -0.23000
H715        H  0.36243503  0.65923315  0.72679158     0.18100
C716        C  0.41252364  0.74531874  0.71645182     0.26100
C717        C  0.39547802  0.78108393  0.68736865    -0.11600
C718        C  0.35415949  0.80686904  0.69892360    -0.25600
C719        C  0.34076266  0.80504163  0.74651146     0.37100
C720        C  0.36066097  0.77198218  0.77641931    -0.27200
F721        F  0.44368041  0.71351333  0.69934928    -0.19300
H722        H  0.40908908  0.78120017  0.65271965     0.16300
F723        F  0.30624142  0.83191451  0.76511948    -0.23000
H724        H  0.34590651  0.76842098  0.81071185     0.18200
C725        C  0.71985206  0.06652002  0.71655886    -0.27100
C726        C  0.70420780  0.03582641  0.75077696     0.06500
C727        C  0.65832867  0.01710735  0.74664724     0.26100
C728        C  0.62783200  0.03207258  0.71079947    -0.11600
C729        C  0.63966232  0.07162416  0.68322280    -0.25500
C730        C  0.68801886  0.08638407  0.68516559     0.36900
C731        C  0.72711332  0.04145223  0.79664894     0.06500
F732        F  0.64059391  0.98992916  0.78095607    -0.19300
H733        H  0.59186034  0.01899414  0.71059234     0.16400
F734        F  0.70471830  0.12407225  0.66202344    -0.23000
H735        H  0.75483802  0.08191924  0.71947434     0.18100
C736        C  0.76958592  0.01903535  0.80959492     0.26100
C737        C  0.79567430  0.03500500  0.84819214    -0.11600
C738        C  0.78435248  0.07846000  0.86966109    -0.25600
C739        C  0.74213024  0.10117976  0.85406999     0.37100
C740        C  0.71273314  0.08075932  0.82148603    -0.27200
F741        F  0.78858607  0.98537007  0.78224190    -0.19300
H742        H  0.82876172  0.01754542  0.85602910     0.16300
F743        F  0.73168044  0.14642056  0.86455816    -0.23000
H744        H  0.68207296  0.10057388  0.81030170     0.18200
C745        C  0.65237049  0.21792527  0.61236712    -0.27100
C746        C  0.68416964  0.20091335  0.57978386     0.06500
C747        C  0.68012873  0.15374260  0.56573704     0.26100
C748        C  0.64706852  0.12382073  0.58699806    -0.11600
C749        C  0.62136729  0.13867272  0.62645049    -0.25500
C750        C  0.62494472  0.18723979  0.63820212     0.36900
C751        C  0.72979049  0.22653420  0.57790239     0.06500
F752        F  0.71130784  0.13546081  0.53508623    -0.19300
H753        H  0.64687868  0.08726398  0.57684632     0.16400
F754        F  0.60989477  0.20490774  0.67885228    -0.23000
H755        H  0.65575696  0.25372200  0.62463979     0.18100
C756        C  0.73169641  0.27424234  0.56516764     0.26100
C757        C  0.76582294  0.30420808  0.58492303    -0.11600
C758        C  0.79335621  0.28924703  0.62333637    -0.25600
C759        C  0.79260630  0.23998224  0.63317637     0.37100
C760        C  0.76459636  0.20930249  0.60761998    -0.27200
F761        F  0.69668124  0.29316738  0.53885872    -0.19300
H762        H  0.76504319  0.34111069  0.57561608     0.16300
F763        F  0.81273245  0.22048685  0.67096103    -0.23000
H764        H  0.76363783  0.17277980  0.61826477     0.18200
C765        C  0.90311542  0.23974415  0.71610489    -0.27100
C766        C  0.88489903  0.23848327  0.76118226     0.06500
C767        C  0.85073061  0.27174980  0.77337066     0.26100
C768        C  0.83118510  0.30153988  0.74007227    -0.11600
C769        C  0.84782064  0.30270511  0.69378405    -0.25500
C770        C  0.88734896  0.27349575  0.68377527     0.36900
C771        C  0.88963717  0.19595934  0.79084665     0.06500
F772        F  0.83120288  0.27094036  0.81612271    -0.19300
H773        H  0.80011437  0.32044907  0.75091366     0.16400
F774        F  0.90523790  0.27154015  0.64050979    -0.23000
H775        H  0.92819057  0.21316153  0.70530463     0.18100
C776        C  0.86428187  0.15635470  0.77723325     0.26100
C777        C  0.84642449  0.12571775  0.81016930    -0.11600
C778        C  0.85495254  0.13200173  0.85823149    -0.25600
C779        C  0.89161808  0.16410426  0.86954379     0.37100
C780        C  0.90606749  0.19811110  0.83679755    -0.27200
F781        F  0.85037577  0.15100485  0.73266097    -0.19300
H782        H  0.82296458  0.09963935  0.79643927     0.16300
F783        F  0.90688778  0.16821315  0.91383254    -0.23000
H784        H  0.92709199  0.22776779  0.84801157     0.18200
C785        C  0.55718254  0.27596915  0.76350396    -0.27100
C786        C  0.52794001  0.24073084  0.78062029     0.06500
C787        C  0.51281835  0.24378145  0.82656186     0.26100
C788        C  0.52776467  0.28104206  0.85474066    -0.11600
C789        C  0.56485895  0.31150123  0.84062234    -0.25500
C790        C  0.57771378  0.30884171  0.79294334     0.36900
C791        C  0.52726203  0.19567938  0.75504493     0.06500
F792        F  0.48686884  0.20857490  0.84540736    -0.19300
H793        H  0.51687681  0.27965447  0.89033429     0.16400
F794        F  0.61471092  0.33200501  0.77444299    -0.23000
H795        H  0.57037442  0.27356614  0.72852378     0.18100
C796        C  0.51266769  0.19273412  0.70877258     0.26100
C797        C  0.52968591  0.15636763  0.68037456    -0.11600
C798        C  0.56619844  0.12549506  0.69589001    -0.25600
C799        C  0.57581890  0.12647943  0.74438106     0.37100
C800        C  0.55514226  0.15975469  0.77305514    -0.27200
F801        F  0.48641994  0.22780723  0.68972867    -0.19300
H802        H  0.52055479  0.15831813  0.64421426     0.16300
F803        F  0.60938854  0.10049551  0.76525934    -0.23000
H804        H  0.56705891  0.16155099  0.80862877     0.18200
C805        C  0.68002765  0.28210668  0.96938970    -0.27100
C806        C  0.68232739  0.23530169  0.95442566     0.06500
C807        C  0.64871208  0.21940288  0.92253450     0.26100
C808        C  0.61949463  0.25120468  0.89993048    -0.11600
C809        C  0.61941544  0.29975659  0.91098544    -0.25500
C810        C  0.64797830  0.31378347  0.94915020     0.36900
C811        C  0.72616654  0.20722993  0.95988207     0.06500
F812        F  0.64885988  0.17413761  0.90768674    -0.19300
H813        H  0.60110442  0.23693223  0.87061005     0.16400
F814        F  0.65161256  0.35956837  0.96146739    -0.23000
H815        H  0.70603231  0.29522784  0.99369703     0.18100
C816        C  0.76756452  0.22400824  0.93932430     0.26100
C817        C  0.80198538  0.19272192  0.92376762    -0.11600
C818        C  0.79665466  0.14327590  0.92824695    -0.25600
C819        C  0.75772275  0.12777666  0.95574887     0.37100
C820        C  0.72341662  0.15951286  0.97124971    -0.27200
F821        F  0.77168227  0.27013554  0.92779355    -0.19300
H822        H  0.82913020  0.20884086  0.90358713     0.16300
F823        F  0.74613212  0.08159041  0.95864568    -0.23000
H824        H  0.69141488  0.14584862  0.98677534     0.18200
C825        C  0.71316433  0.37549175  0.82042991    -0.27100
C826        C  0.69596779  0.40689517  0.78744240     0.06500
C827        C  0.64961356  0.42432354  0.79223258     0.26100
C828        C  0.62014830  0.40708202  0.82754517    -0.11600
C829        C  0.63442314  0.36807435  0.85500835    -0.25500
C830        C  0.68290797  0.35426294  0.85179175     0.36900
C831        C  0.72126896  0.40659387  0.74272041     0.06500
F832        F  0.63129769  0.45404649  0.76010233    -0.19300
H833        H  0.58373629  0.41895380  0.82840056     0.16400
F834        F  0.70092158  0.31566763  0.87276968    -0.23000
H835        H  0.74849911  0.36101804  0.81689344     0.18100
C836        C  0.76957796  0.41763296  0.74068424     0.26100
C837        C  0.79845772  0.39758412  0.70676921    -0.11600
C838        C  0.78136066  0.36161559  0.67701140    -0.25600
C839        C  0.73136418  0.35393813  0.67761656     0.37100
C840        C  0.70210983  0.37836047  0.70806127    -0.27200
F841        F  0.78999341  0.44313066  0.77493470    -0.19300
H842        H  0.83594337  0.40419991  0.70992187     0.16300
F843        F  0.70993475  0.31843310  0.65487153    -0.23000
H844        H  0.66508600  0.36864553  0.70948015     0.18200
C845        C  0.18948502  0.69714778  0.40310387    -0.27100
C846        C  0.21613451  0.67942396  0.43974121     0.06500
C847        C  0.20187959  0.63738093  0.46093692     0.26100
C848        C  0.15997693  0.61485633  0.44616391    -0.11600
C849        C  0.13375964  0.63201730  0.40766316    -0.25500
C850        C  0.15210879  0.67222740  0.38496200     0.36900
C851        C  0.26307182  0.70137051  0.44583214     0.06500
F852        F  0.22892060  0.61754090  0.49453393    -0.19300
H853        H  0.15005709  0.58231543  0.46288682     0.16400
F854        F  0.13611755  0.68716820  0.34344211    -0.23000
H855        H  0.20137817  0.72793720  0.38442246     0.18100
C856        C  0.29255649  0.69773981  0.40753304     0.26100
C857        C  0.31430909  0.73783604  0.39059052    -0.11600
C858        C  0.31524853  0.78087228  0.41537809    -0.25600
C859        C  0.29476856  0.78000918  0.46012451     0.37100
C860        C  0.26725258  0.74120681  0.47396811    -0.27200
F861        F  0.28909323  0.65972524  0.37932942    -0.19300
H862        H  0.32513328  0.73531453  0.35527767     0.16300
F863        F  0.29327648  0.81938075  0.48641795    -0.23000
H864        H  0.24381238  0.74500235  0.50289017     0.18200
C865        C  0.05949414  0.71004941  0.21803060    -0.27100
C866        C  0.03244965  0.72858682  0.25396595     0.06500
C867        C  0.02019078  0.77644753  0.25163992     0.26100
C868        C  0.03654747  0.80487258  0.21517324    -0.11600
C869        C  0.06855615  0.78769979  0.18129842    -0.25500
C870        C  0.07816345  0.73849145  0.18333828     0.36900
C871        C  0.02390985  0.69843534  0.29559841     0.06500
F872        F  0.99348372  0.79623389  0.28522837    -0.19300
H873        H  0.02839279  0.84194469  0.21693781     0.16400
F874        F  0.11083776  0.71725391  0.15694662    -0.23000
H875        H  0.07039493  0.67356673  0.21891695     0.18100
C876        C  0.01291899  0.65018262  0.29093969     0.26100
C877        C  0.02684764  0.61812913  0.32544447    -0.11600
C878        C  0.05392755  0.63424206  0.36320555    -0.25600
C879        C  0.04817037  0.68228486  0.37477137     0.37100
C880        C  0.03672233  0.71459047  0.33975406    -0.27200
F881        F  0.99548374  0.63333950  0.25055129    -0.19300
H882        H  0.02475177  0.58086122  0.31812189     0.16300
F883        F  0.06161905  0.69882423  0.41673568    -0.23000
H884        H  0.04226446  0.75169107  0.34606712     0.18200
C885        C  0.18598092  0.82956905  0.25960156    -0.27100
C886        C  0.17511119  0.87222158  0.28074049     0.06500
C887        C  0.14099566  0.90168285  0.26035442     0.26100
C888        C  0.11968901  0.88904807  0.21791339    -0.11600
C889        C  0.12963573  0.84504453  0.19712270    -0.25500
C890        C  0.16234577  0.81508874  0.22037209     0.36900
C891        C  0.19919760  0.88166747  0.32525548     0.06500
F892        F  0.12657210  0.94108183  0.28259094    -0.19300
H893        H  0.09342218  0.91237086  0.20325780     0.16400
F894        F  0.17164673  0.77081476  0.20552146    -0.23000
H895        H  0.21172664  0.80590431  0.27503409     0.18100
C896        C  0.19500286  0.84700128  0.35921889     0.26100
C897        C  0.23500867  0.83230196  0.38340055    -0.11600
C898        C  0.27980044  0.85365284  0.37634506    -0.25600
C899        C  0.27906532  0.89778527  0.35317562     0.37100
C900        C  0.23949806  0.91039797  0.32602276    -0.27200
F901        F  0.15503849  0.82059326  0.36171415    -0.19300
H902        H  0.23031933  0.80127059  0.40395012     0.16300
F903        F  0.31958093  0.92283318  0.34787144    -0.23000
H904        H  0.24324877  0.93786252  0.30049435     0.18200
C905        C  0.35851043  0.79038545  0.26561010    -0.27100
C906        C  0.38581541  0.75115693  0.27676870     0.06500
C907        C  0.40951802  0.75096025  0.31951200     0.26100
C908        C  0.39855964  0.78548247  0.35295036    -0.11600
C909        C  0.35887372  0.81592635  0.34649934    -0.25500
C910        C  0.34359578  0.82139477  0.29969653     0.36900
C911        C  0.37539973  0.70728076  0.25049419     0.06500
F912        F  0.43665342  0.71356707  0.33186341    -0.19300
H913        H  0.41353941  0.78080999  0.38704907     0.16400
F914        F  0.31056133  0.85229873  0.28540044    -0.23000
H915        H  0.34185836  0.79254273  0.23189283     0.18100
C916        C  0.32838966  0.69162928  0.24939560     0.26100
C917        C  0.31483159  0.65541919  0.22037479    -0.11600
C918        C  0.34741769  0.63107775  0.19205770    -0.25600
C919        C  0.39565360  0.64506924  0.19524814     0.37100
C920        C  0.40894439  0.68369325  0.22330960    -0.27200
F921        F  0.29456362  0.71273718  0.27534641    -0.19300
H922        H  0.27769976  0.64597584  0.22012608     0.16300
F923        F  0.43011461  0.62267468  0.17166064    -0.23000
H924        H  0.44508378  0.69610337  0.22281803     0.18200
C925        C  0.27739791  0.53700700  0.27237353    -0.27100
C926        C  0.23244677  0.52295606  0.25736494     0.06500
C927        C  0.22610112  0.51392477  0.21003543     0.26100
C928        C  0.26008899  0.52908055  0.17809655    -0.11600
C929        C  0.29934098  0.55612102  0.19279299    -0.25500
C930        C  0.31149835  0.55135914  0.24033774     0.36900
C931        C  0.19076043  0.53308109  0.28704366     0.06500
F932        F  0.18427525  0.49664122  0.19433662    -0.19300
H933        H  0.25106014  0.52672154  0.14188227     0.16400
F934        F  0.35446797  0.56483916  0.25669698    -0.23000
H935        H  0.28456807  0.54161728  0.30881355     0.18100
C936        C  0.18615217  0.51687045  0.33265703     0.26100
C937        C  0.15104396  0.53573640  0.36174720    -0.11600
C938        C  0.12157799  0.57355357  0.34736314    -0.25600
C939        C  0.12819798  0.58973294  0.30130200     0.37100
C940        C  0.16007991  0.56824742  0.27167814    -0.27200
F941        F  0.21712882  0.48486810  0.34996324    -0.19300
H942        H  0.14952231  0.52319785  0.39696355     0.16300
F943        F  0.10893600  0.62986194  0.28501662    -0.23000
H944        H  0.16456909  0.58329073  0.23758577     0.18200
C945        C  0.28195348  0.69642048  0.08389503    -0.27100
C946        C  0.23271536  0.69625653  0.09008152     0.06500
C947        C  0.21270880  0.65726479  0.11243663     0.26100
C948        C  0.24127701  0.62310470  0.13305712    -0.11600
C949        C  0.29123002  0.62313493  0.12868124    -0.25500
C950        C  0.31057140  0.66008882  0.10137365     0.36900
C951        C  0.20365954  0.73999069  0.08388798     0.06500
F952        F  0.16543600  0.65463170  0.11976367    -0.19300
H953        H  0.22267229  0.60049492  0.15621877     0.16400
F954        F  0.35801315  0.66527774  0.09685936    -0.23000
H955        H  0.29891199  0.72608571  0.06738294     0.18100
C956        C  0.21888759  0.78222585  0.10434780     0.26100
C957        C  0.18544383  0.81419362  0.12080662    -0.11600
C958        C  0.13671486  0.80260466  0.12025493    -0.25600
C959        C  0.12255041  0.76996883  0.08622555     0.37100
C960        C  0.15594840  0.73745816  0.06946348    -0.27200
F961        F  0.26511360  0.78962783  0.11494319    -0.19300
H962        H  0.19827925  0.84464561  0.13934620     0.16300
F963        F  0.07595304  0.76319624  0.07683994    -0.23000
H964        H  0.14345021  0.70707267  0.05059936     0.18200
C965        C  0.15155976  0.36714378  0.76916896    -0.27100
C966        C  0.18816330  0.39514877  0.75286106     0.06500
C967        C  0.18640807  0.40970098  0.70631837     0.26100
C968        C  0.14953692  0.39437597  0.67701670    -0.11600
C969        C  0.11990875  0.35666696  0.69056873    -0.25500
C970        C  0.11907176  0.34687077  0.73907240     0.36900
C971        C  0.23181859  0.39771776  0.78187110     0.06500
F972        F  0.22247366  0.43491924  0.68800188    -0.19300
H973        H  0.15030484  0.40509171  0.64114551     0.16400
F974        F  0.09040000  0.31506553  0.75910938    -0.23000
H975        H  0.15158046  0.35558420  0.80483158     0.18100
C976        C  0.23039720  0.40885870  0.82921809     0.26100
C977        C  0.26709623  0.39455552  0.85913317    -0.11600
C978        C  0.30228059  0.36234739  0.84423690    -0.25600
C979        C  0.30559526  0.35631894  0.79522770     0.37100
C980        C  0.27203233  0.37543382  0.76517690    -0.27200
F981        F  0.19092440  0.42830346  0.84766440    -0.19300
H982        H  0.26241099  0.40117293  0.89554404     0.16300
F983        F  0.33659359  0.32767300  0.77433784    -0.23000
H984        H  0.27400972  0.36617572  0.72897109     0.18200
C985        C  0.20578837  0.26905628  0.91351433    -0.27100
C986        C  0.21821128  0.24270990  0.95238024     0.06500
C987        C  0.26464630  0.24664222  0.96969048     0.26100
C988        C  0.29603020  0.27987075  0.95098915    -0.11600
C989        C  0.28481977  0.30438524  0.90966364    -0.25500
C990        C  0.23905914  0.29601517  0.89040328     0.36900
C991        C  0.18426415  0.20604689  0.96773759     0.06500
F992        F  0.28023573  0.21759040  0.00366175    -0.19300
H993        H  0.33129892  0.28182641  0.96549059     0.16400
F994        F  0.22753594  0.30760539  0.84643960    -0.23000
H995        H  0.17150248  0.26429512  0.89739732     0.18100
C996        C  0.13557923  0.21659021  0.97189689     0.26100
C997        C  0.10160114  0.18169516  0.96278913    -0.11600
C998        C  0.11687312  0.14009616  0.94198592    -0.25600
C999        C  0.16321118  0.12490655  0.95458465     0.37100
C1000       C  0.19746327  0.15862746  0.96538438    -0.27200
F1001       F  0.12107808  0.26157603  0.97863825    -0.19300
H1002       H  0.06444888  0.19114601  0.96212080     0.16300
F1003       F  0.17774497  0.08015252  0.94640068    -0.23000
H1004       H  0.23441421  0.14852642  0.96504468     0.18200
C1005       C  0.06537711  0.21006657  0.71843820    -0.27100
C1006       C  0.02669570  0.22429003  0.74463812     0.06500
C1007       C  0.00614447  0.26847303  0.73509407     0.26100
C1008       C  0.02317091  0.29654209  0.69870075    -0.11600
C1009       C  0.06663704  0.28543211  0.67698429    -0.25500
C1010       C  0.08761286  0.24123921  0.68880845     0.36900
C1011       C  0.02080336  0.19959156  0.78947340     0.06500
F1012       F  0.97427670  0.28740440  0.76461347    -0.19300
H1013       H  0.00712301  0.33064678  0.69357226     0.16400
F1014       F  0.13280242  0.22981658  0.67787648    -0.23000
H1015       H  0.08383513  0.17775980  0.72707509     0.18100
C1016       C  0.01807706  0.15040125  0.79120979     0.26100
C1017       C  0.03594653  0.12566977  0.82946232    -0.11600
C1018       C  0.05824916  0.14846898  0.86750672    -0.25600
C1019       C  0.05829420  0.19887048  0.86494334     0.37100
C1020       C  0.03700121  0.22309906  0.82843273    -0.27200
F1021       F  0.00400447  0.12601154  0.75333554    -0.19300
H1022       H  0.03784099  0.08787852  0.82603275     0.16300
F1023       F  0.08636138  0.22671377  0.89042660    -0.23000
H1024       H  0.04160463  0.26100644  0.82693720     0.18200
C1025       C  0.36523653  0.21051515  0.82587160    -0.27100
C1026       C  0.39645910  0.22797773  0.79312509     0.06500
C1027       C  0.41383101  0.27392628  0.79820614     0.26100
C1028       C  0.39707987  0.30262832  0.83397980    -0.11600
C1029       C  0.35615998  0.28929902  0.85880279    -0.25500
C1030       C  0.34327333  0.24065946  0.85664558     0.36900
C1031       C  0.39476712  0.20431838  0.74805228     0.06500
F1032       F  0.44161484  0.29321956  0.76516257    -0.19300
H1033       H  0.40936730  0.33867277  0.83540219     0.16400
F1034       F  0.30631689  0.22144670  0.87936193    -0.23000
H1035       H  0.35141404  0.17511825  0.82241432     0.18100
C1036       C  0.40972848  0.15755877  0.74322507     0.26100
C1037       C  0.39174796  0.12968093  0.70743716    -0.11600
C1038       C  0.35581604  0.14654112  0.67734108    -0.25600
C1039       C  0.34015972  0.19344392  0.68453353     0.37100
C1040       C  0.36202794  0.22245680  0.71661091    -0.27200
F1041       F  0.43828076  0.13763371  0.77557080    -0.19300
H1042       H  0.40305629  0.09336476  0.70603729     0.16300
F1043       F  0.29997851  0.21048614  0.66545926    -0.23000
H1044       H  0.34749957  0.25729221  0.72173766     0.18200
C1045       C  0.28495499  0.20711993  0.56787394    -0.27100
C1046       C  0.23634101  0.19775417  0.57435739     0.06500
C1047       C  0.22310257  0.15036769  0.58136591     0.26100
C1048       C  0.25786194  0.11676547  0.59085354    -0.11600
C1049       C  0.30311929  0.13260916  0.60414055    -0.25500
C1050       C  0.31880940  0.17454883  0.58328306     0.36900
C1051       C  0.20205791  0.23701964  0.58268581     0.06500
F1052       F  0.17725438  0.13735432  0.58666916    -0.19300
H1053       H  0.24638120  0.08168601  0.60015129     0.16400
F1054       F  0.36479499  0.18796766  0.58618919    -0.23000
H1055       H  0.29674777  0.24158064  0.55703265     0.18100
C1056       C  0.21616543  0.27648965  0.60829381     0.26100
C1057       C  0.18281193  0.30679126  0.62704419    -0.11600
C1058       C  0.13345532  0.30033638  0.62070150    -0.25600
C1059       C  0.11998308  0.26297272  0.59060377     0.37100
C1060       C  0.15374060  0.23232927  0.57224354    -0.27200
F1061       F  0.26206094  0.28355555  0.62032484    -0.19300
H1062       H  0.19774112  0.33173634  0.65044261     0.16300
F1063       F  0.07424252  0.24895424  0.58693775    -0.23000
H1064       H  0.14117598  0.20278808  0.55230663     0.18200
C1065       C  0.26660158  0.04865700  0.75143191    -0.27100
C1066       C  0.22532703  0.07585409  0.75557649     0.06500
C1067       C  0.21545287  0.10996881  0.72239590     0.26100
C1068       C  0.24839989  0.12022655  0.68903649    -0.11600
C1069       C  0.28933468  0.09236899  0.68191158    -0.25500
C1070       C  0.29758635  0.05547245  0.71391604     0.36900
C1071       C  0.19804865  0.07856822  0.79866534     0.06500
F1072       F  0.17638956  0.13773160  0.72583899    -0.19300
H1073       H  0.24164753  0.15179300  0.66962795     0.16400
F1074       F  0.33724122  0.02873457  0.71149500    -0.23000
H1075       H  0.27620147  0.02427502  0.77862682     0.18100
C1076       C  0.16278928  0.04589160  0.81000179     0.26100
C1077       C  0.13022613  0.05576061  0.84527245    -0.11600
C1078       C  0.12954190  0.10054784  0.86633510    -0.25600
C1079       C  0.16413438  0.13363970  0.85219366     0.37100
C1080       C  0.19956615  0.12141625  0.82184999    -0.27200
F1081       F  0.15682340  0.00718910  0.78372692    -0.19300
H1082       H  0.10317262  0.02986254  0.85308058     0.16300
F1083       F  0.16335094  0.17873385  0.86700725    -0.23000
H1084       H  0.22540802  0.14789335  0.81230051     0.18200
C1085       C  0.07222424  0.21680002  0.22114108    -0.27100
C1086       C  0.05159571  0.19482405  0.25871439     0.06500
C1087       C  0.03864598  0.14741542  0.25502832     0.26100
C1088       C  0.04984991  0.12193161  0.21482689    -0.11600
C1089       C  0.07738042  0.14208689  0.17884022    -0.25500
C1090       C  0.08895700  0.19076306  0.18442881     0.36900
C1091       C  0.05908584  0.21900322  0.30319419     0.06500
F1092       F  0.01914727  0.12477421  0.29152251    -0.19300
H1093       H  0.04245664  0.08468037  0.21504615     0.16400
F1094       F  0.12470478  0.21237431  0.16231565    -0.23000
H1095       H  0.08412234  0.25294574  0.22444482     0.18100
C1096       C  0.10568730  0.22169458  0.31947306     0.26100
C1097       C  0.11942620  0.25848401  0.34792584    -0.11600
C1098       C  0.08650771  0.29187355  0.36489472    -0.25600
C1099       C  0.03874863  0.28723443  0.35046795     0.37100
C1100       C  0.02574763  0.25124650  0.31958498    -0.27200
F1101       F  0.13903880  0.19093133  0.30437506    -0.19300
H1102       H  0.15630602  0.26015754  0.35809745     0.16300
F1103       F  0.00500284  0.31807457  0.36402377    -0.23000
H1104       H  0.99021950  0.24935565  0.30659100     0.18200
C1105       C  0.14759059  0.21874787  0.45936751    -0.27100
C1106       C  0.19418944  0.23204979  0.47040613     0.06500
C1107       C  0.20224446  0.28059874  0.47897610     0.26100
C1108       C  0.16821010  0.31424788  0.46556042    -0.11600
C1109       C  0.12818807  0.29951745  0.44061663    -0.25500
C1110       C  0.11360778  0.25263451  0.44903203     0.36900
C1111       C  0.23365867  0.19657503  0.46730154     0.06500
F1112       F  0.24363190  0.29594750  0.49738411    -0.19300
H1113       H  0.17713676  0.35122654  0.46735225     0.16400
F1114       F  0.06898255  0.23806021  0.43894597    -0.23000
H1115       H  0.13750652  0.18249276  0.45482097     0.18100
C1116       C  0.22643936  0.14762918  0.47401780     0.26100
C1117       C  0.26037590  0.11496208  0.45929075    -0.11600
C1118       C  0.29818305  0.13010891  0.43186776    -0.25600
C1119       C  0.31161845  0.17779641  0.43696061     0.37100
C1120       C  0.27871489  0.21080856  0.45229591    -0.27200
F1121       F  0.18596186  0.13065221  0.49262312    -0.19300
H1122       H  0.25278367  0.07778390  0.46260540     0.16300
F1123       F  0.35453347  0.19340078  0.42264308    -0.23000
H1124       H  0.28770032  0.24749490  0.44841237     0.18200
C1125       C  0.17701042  0.02021813  0.22268927    -0.27100
C1126       C  0.20665654  0.05188730  0.24572600     0.06500
C1127       C  0.20722762  0.09890590  0.23194891     0.26100
C1128       C  0.17529325  0.11488673  0.19922763    -0.11600
C1129       C  0.14181921  0.08472122  0.17813563    -0.25500
C1130       C  0.14457843  0.03613520  0.18912496     0.36900
C1131       C  0.22993375  0.04021685  0.28980834     0.06500
F1132       F  0.23675626  0.13025034  0.25250866    -0.19300
H1133       H  0.17624311  0.15179216  0.19099355     0.16400
F1134       F  0.11573779  0.00399722  0.16915424    -0.23000
H1135       H  0.17828216  0.98349572  0.23163126     0.18100
C1136       C  0.20850405  0.05708639  0.32985618     0.26100
C1137       C  0.23626061  0.07117704  0.36708620    -0.11600
C1138       C  0.28612522  0.06548071  0.36675007    -0.25600
C1139       C  0.30515560  0.03780703  0.33038306     0.37100
C1140       C  0.27780499  0.02783252  0.29116371    -0.27200
F1141       F  0.16169406  0.06815496  0.32962788    -0.19300
H1142       H  0.21775787  0.09208380  0.39185424     0.16300
F1143       F  0.35212143  0.02783068  0.32896791    -0.23000
H1144       H  0.29488447  0.01424774  0.26056002     0.18200
C1145       C  0.32395358  0.19163876  0.29935546    -0.27100
C1146       C  0.37052550  0.19006081  0.28377512     0.06500
C1147       C  0.40174069  0.15638565  0.30192697     0.26100
C1148       C  0.38700527  0.12666158  0.33790939    -0.11600
C1149       C  0.34043674  0.12976690  0.35547854    -0.25500
C1150       C  0.30876296  0.16182092  0.33388488     0.36900
C1151       C  0.38522741  0.22774702  0.25218935     0.06500
F1152       F  0.44621244  0.15253792  0.28514007    -0.19300
H1153       H  0.41180334  0.10092304  0.35102236     0.16400
F1154       F  0.26306208  0.16601746  0.34766266    -0.23000
H1155       H  0.29928264  0.21727908  0.28553480     0.18100
C1156       C  0.38846748  0.22049341  0.20459605     0.26100
C1157       C  0.38286677  0.25879385  0.17448931    -0.11600
C1158       C  0.36651612  0.30310062  0.19131980    -0.25600
C1159       C  0.37433032  0.31117442  0.23903617     0.37100
C1160       C  0.38332822  0.27372854  0.26880250    -0.27200
F1161       F  0.39123401  0.17627939  0.18721447    -0.19300
H1162       H  0.38157426  0.25111914  0.13794370     0.16300
F1163       F  0.37425414  0.35416374  0.25829994    -0.23000
H1164       H  0.38398006  0.28014455  0.30563942     0.18200
C1165       C  0.27860110  0.41363498  0.25428239    -0.27100
C1166       C  0.23232695  0.39525101  0.25716331     0.06500
C1167       C  0.21493620  0.36992198  0.21953569     0.26100
C1168       C  0.24521499  0.35602121  0.18475921    -0.11600
C1169       C  0.29491431  0.36442478  0.18707230    -0.25500
C1170       C  0.30833841  0.40124185  0.21703097     0.36900
C1171       C  0.20426955  0.39441114  0.30054062     0.06500
F1172       F  0.16991742  0.35314278  0.21879385    -0.19300
H1173       H  0.22856509  0.33514624  0.15839076     0.16400
F1174       F  0.35108441  0.42250861  0.21248672    -0.23000
H1175       H  0.29209950  0.43609459  0.28139872     0.18100
C1176       C  0.22219604  0.36989598  0.33864871     0.26100
C1177       C  0.19161655  0.35143849  0.37191450    -0.11600
C1178       C  0.14167761  0.35800659  0.36990087    -0.25600
C1179       C  0.12466529  0.38424991  0.33140600     0.37100
C1180       C  0.15555434  0.40381552  0.29894964    -0.27200
F1181       F  0.26869931  0.35776610  0.34044468    -0.19300
H1182       H  0.20828220  0.32697263  0.39490229     0.16300
F1183       F  0.07796436  0.38465238  0.32035802    -0.23000
H1184       H  0.14060858  0.42138596  0.26904952     0.18200
C1185       C  0.25018414  0.22619827  0.13890872    -0.27100
C1186       C  0.23132118  0.23487541  0.09523231     0.06500
C1187       C  0.24224232  0.27752189  0.07329289     0.26100
C1188       C  0.27917377  0.30578897  0.09039095    -0.11600
C1189       C  0.30029146  0.29578644  0.13376663    -0.25500
C1190       C  0.28080171  0.25763447  0.15921185     0.36900
C1191       C  0.19808672  0.19932580  0.07704044     0.06500
F1192       F  0.21580160  0.29313927  0.03735221    -0.19300
H1193       H  0.28750206  0.33779065  0.07205193     0.16400
F1194       F  0.28792194  0.25283736  0.20527474    -0.23000
H1195       H  0.23859937  0.19622513  0.15896625     0.18100
C1196       C  0.21186393  0.15194939  0.08038660     0.26100
C1197       C  0.17893745  0.11892781  0.09487395    -0.11600
C1198       C  0.13269686  0.13366963  0.10635650    -0.25600
C1199       C  0.11612104  0.17463145  0.08397635     0.37100
C1200       C  0.14957915  0.20956518  0.07318958    -0.27200
F1201       F  0.25839809  0.13986672  0.08014854    -0.19300
H1202       H  0.19157953  0.08415748  0.10400052     0.16300
F1203       F  0.06946247  0.18600696  0.08462117    -0.23000
H1204       H  0.13773120  0.24547898  0.06846556     0.18200
loop_ 
_geom_bond_atom_site_label_1 
_geom_bond_atom_site_label_2 
_geom_bond_distance 
_geom_bond_site_symmetry_2 
_ccdc_geom_bond_type 
C1            C9   1.531       .  S
C1         C1158   1.580       .  S
C1         C1169   1.583       .  S
C1         C1189   1.558       .  S
C2           C96   1.520       .  S
C2         C1118   1.559       .  S
C2         C1138   1.563       .  S
C2         C1149   1.550       .  S
C3          C135   1.536       .  S
C3         C1089   1.573       .  S
C3         C1129   1.556       .  S
C3         C1198   1.557       .  S
C4          C222   1.547       .  S
C4         C1098   1.559       .  S
C4         C1109   1.569       .  S
C4         C1178   1.577       .  S
C5          C106   1.525       .  S
C5         C1038   1.557       .  S
C5         C1049   1.556       .  S
C5         C1069   1.558       .  S
C6          C165   1.544       .  S
C6          C998   1.565       .  S
C6         C1018   1.590       .  S
C6         C1078   1.551       .  S
C7          C192   1.553       .  S
C7          C969   1.583       .  S
C7         C1009   1.561       .  S
C7         C1058   1.574       .  S
C8           C29   1.552       .  S
C8          C978   1.583       .  S
C8          C989   1.562       .  S
C8         C1029   1.564       .  S
C9           N27   1.353       .  A
C9           C46   1.473       .  S
N10          N27   1.328       .  A
N10          N32   1.322       .  A
N10         Co47   2.092       .  S
C11          N36   1.341       .  A
C11          C49   1.470       .  S
C11          H56   1.082       .  S
H12          C53   1.074       .  S
C13          N37   1.348       .  A
C13          C17   1.474       .  S
C13          H42   1.082       .  S
Co14         N32   2.108       .  S
Co14         N22   2.123       .  S
Co14         N54   2.112   1_554  S
Co14         N30   2.100   1_554  S
Co14        Cl58   2.484       .  S
N15          C53   1.331       .  A
N15          N22   1.316       .  A
N15         Co16   2.082       .  S
Co16         N19   2.086       .  S
Co16         N36   2.090   1_554  S
Co16         N23   2.074   1_554  S
Co16        Cl58   2.426       .  S
C17         C129   1.528       .  S
C17          N55   1.351       .  A
N18          N25   1.318       .  A
N18          N48   1.331       .  A
N18         Co51   2.111       .  S
N19          N37   1.320       .  A
N19          N55   1.323       .  A
N20          C49   1.358       .  A
N20          N30   1.326       .  A
H21          C46   1.080       .  S
N22          N43   1.336       .  A
N23          N41   1.317       .  A
N23          N28   1.323       .  A
C24         C131   1.536       .  S
C24          N28   1.348       .  A
C24          C52   1.476       .  S
N25          C40   1.338       .  A
N25         Co47   2.101       .  S
C26          N54   1.345       .  A
C26          C29   1.475       .  S
C26          H60   1.082       .  S
C29          N50   1.357       .  A
N30          N36   1.318       .  A
N31          C57   1.338       .  A
N31          N33   1.320       .  A
N31         Co47   2.094   1_556  S
N32          C46   1.340       .  A
N33          N61   1.329       .  A
N33         Co51   2.101   1_556  S
H34          C57   1.081       .  S
H35          C52   1.082       .  S
N37         Co51   2.110       .  S
N38          N50   1.331       .  A
N38          N54   1.321       .  A
N38         Co47   2.110   1_556  S
C39         C190   1.559       .  S
C39          N43   1.368       .  A
C39          C53   1.469       .  S
C40          C59   1.475       .  S
C40          H44   1.077       .  S
N41          C52   1.342       .  A
N41         Co51   2.096   1_556  S
C45         C123   1.545       .  S
C45          N61   1.357       .  A
C45          C57   1.471       .  S
Co47        Cl58   2.443       .  S
N48          C59   1.362       .  A
C49         C119   1.540       .  S
Co51        Cl58   2.484       .  S
C59          C62   1.554       .  S
C62         C918   1.569       .  S
C62         C929   1.584       .  S
C62         C949   1.575       .  S
C63         C155   1.553       .  S
C63         C869   1.577       .  S
C63         C889   1.560       .  S
C63         C958   1.567       .  S
C64         C200   1.533       .  S
C64         C849   1.554       .  S
C64         C878   1.565       .  S
C64         C938   1.568       .  S
C65          C66   1.537       .  S
C65         C858   1.574       .  S
C65         C898   1.574       .  S
C65         C909   1.586       .  S
C66          N84   1.355       .  A
C66         C103   1.473       .  S
N67          N84   1.328       .  A
N67          N89   1.320       .  A
N67        Co104   2.094       .  S
C68          N93   1.335       .  A
C68         C106   1.467       .  S
C68         H113   1.082       .  S
H69         C110   1.082       .  S
C70          N94   1.340       .  A
C70          C74   1.472       .  S
C70          H99   1.081   1_545  S
Co71         N89   2.098       .  S
Co71         N79   2.086   1_565  S
Co71        N111   2.081       .  S
Co71         N87   2.104   1_565  S
Co71       Cl115   2.460       .  S
N72         C110   1.343       .  A
N72          N79   1.319       .  A
N72         Co73   2.095       .  S
Co73         N76   2.103       .  S
Co73         N93   2.089       .  S
Co73         N80   2.106       .  S
Co73       Cl115   2.460   1_545  S
C74         C188   1.540       .  S
C74         N112   1.357       .  A
N75          N82   1.320       .  A
N75         N105   1.326       .  A
N75        Co108   2.104       .  S
N76          N94   1.321       .  A
N76         N112   1.331       .  A
N77         C106   1.358       .  A
N77          N87   1.330       .  A
H78         C103   1.081       .  S
N79         N100   1.323       .  A
N80          N98   1.318       .  A
N80          N85   1.328       .  A
C81         C121   1.546       .  S
C81          N85   1.358       .  A
C81         C109   1.472       .  S
N82          C97   1.346       .  A
N82        Co104   2.097       .  S
C83         N111   1.342       .  A
C83          C86   1.472       .  S
C83         H117   1.081       .  S
C86         C124   1.538       .  S
C86         N107   1.354       .  A
N87          N93   1.320       .  A
N88         C114   1.341       .  A
N88          N90   1.319       .  A
N88        Co104   2.089       .  S
N89         C103   1.339       .  A
N90         N118   1.324       .  A
N90        Co108   2.091       .  S
H91         C114   1.082       .  S
H92         C109   1.081       .  S
N94        Co108   2.104   1_545  S
N95         N107   1.323       .  A
N95         N111   1.317       .  A
N95        Co104   2.097       .  S
C96         N100   1.353       .  A
C96         C110   1.470       .  S
C97         C116   1.469       .  S
C97         H101   1.081       .  S
N98         C109   1.346       .  A
N98        Co108   2.100   1_545  S
C102        C133   1.536       .  S
C102        N118   1.352       .  A
C102        C114   1.472       .  S
Co104      Cl115   2.455       .  S
N105        C116   1.358       .  A
Co108      Cl115   2.454       .  S
C116        C127   1.532       .  S
C119        C789   1.578       .  S
C119        C809   1.562       .  S
C119        C829   1.567       .  S
C120        C212   1.552       .  S
C120        C758   1.573       .  S
C120        C769   1.574       .  S
C120        C838   1.578       .  S
C121        C729   1.577       .  S
C121        C749   1.566       .  S
C121        C798   1.580       .  S
C122        C143   1.547       .  S
C122        C738   1.569       .  S
C122        C778   1.583       .  S
C122        C818   1.576       .  S
C123        C669   1.558       .  S
C123        C689   1.559       .  S
C123        C709   1.575       .  S
C124        C629   1.575       .  S
C124        C658   1.567       .  S
C124        C718   1.578       .  S
C125        C242   1.540       .  S
C125        C609   1.573       .  S
C125        C638   1.564       .  S
C125        C678   1.569       .  S
C126        C175   1.527       .  S
C126        C618   1.557       .  S
C126        C649   1.570       .  S
C126        C698   1.566       .  S
C127        C558   1.562       .  S
C127        C569   1.563       .  S
C127        C589   1.564       .  S
C128        C207   1.547       .  S
C128        C509   1.573       .  S
C128        C529   1.571       .  S
C128        C598   1.571       .  S
C129        C489   1.562       .  S
C129        C518   1.563       .  S
C129        C549   1.555       .  S
C130        C171   1.554       .  S
C130        C498   1.568       .  S
C130        C538   1.575       .  S
C130        C578   1.572       .  S
C131        C429   1.567       .  S
C131        C458   1.575       .  S
C131        C469   1.565       .  S
C132        C228   1.529       .  S
C132        C389   1.566       .  S
C132        C409   1.566       .  S
C132        C449   1.568       .  S
C133        C369   1.573       .  S
C133        C398   1.560       .  S
C133        C438   1.566       .  S
C134        C150   1.537       .  S
C134        C378   1.570       .  S
C134        C418   1.585       .  S
C134        C478   1.563       .  S
C135        N153   1.360       .  A
C135        C172   1.464       .  S
N136        N153   1.332       .  A
N136        N158   1.320       .  A
N136       Co173   2.111   1_445  S
C137        N162   1.339       .  A
C137        C175   1.467       .  S
C137        H182   1.081   1_455  S
H138        C179   1.071   1_655  S
C139        N163   1.338       .  A
C139        C143   1.475       .  S
C139        H168   1.075       .  S
Co140       N158   2.077   1_565  S
Co140       N148   2.116   1_564  S
Co140       N180   2.117       .  S
Co140       N156   2.094   1_554  S
Co140      Cl184   2.457   1_455  S
N141        C179   1.342       .  A
N141        N148   1.317       .  A
N141       Co142   2.077   1_445  S
Co142       N145   2.092   1_565  S
Co142       N162   2.095   1_655  S
Co142       N149   2.071       .  S
Co142      Cl184   2.465   1_556  S
C143        N181   1.358       .  A
N144        N151   1.319       .  A
N144        N174   1.327       .  A
N144       Co177   2.094   1_545  S
N145        N163   1.316       .  A
N145        N181   1.330       .  A
N146        C175   1.357       .  A
N146        N156   1.328       .  A
H147        C172   1.081       .  S
N148        N169   1.327       .  A
N149        N167   1.320       .  A
N149        N154   1.323       .  A
C150        N154   1.347       .  A
C150        C178   1.480       .  S
N151        C166   1.340       .  A
N151       Co173   2.098   1_545  S
C152        N180   1.342       .  A
C152        C155   1.476       .  S
C152        H186   1.082       .  S
C155        N176   1.357       .  A
N156        N162   1.319       .  A
N157        C183   1.351       .  A
N157        N159   1.321       .  A
N157       Co173   2.118       .  S
N158        C172   1.332       .  A
N159        N187   1.325       .  A
N159       Co177   2.100       .  S
H160        C183   1.082       .  S
H161        C178   1.082       .  S
N163       Co177   2.100   1_546  S
N164        N176   1.332       .  A
N164        N180   1.323       .  A
N164       Co173   2.108   1_455  S
C165        N169   1.360       .  A
C165        C179   1.470       .  S
C166        C185   1.474       .  S
C166        H170   1.077       .  S
N167        C178   1.344       .  A
N167       Co177   2.115   1_556  S
C171        N187   1.352       .  A
C171        C183   1.479       .  S
Co173      Cl184   2.473       .  S
N174        C185   1.356       .  A
Co177      Cl184   2.450       .  S
C185        C189   1.539       .  S
C188        C309   1.592       .  S
C188        C338   1.557       .  S
C188        C358   1.579       .  S
C189        C278   1.571       .  S
C189        C298   1.576       .  S
C189        C349   1.555       .  S
C190        C249   1.568       .  S
C190        C269   1.573       .  S
C190        C318   1.571       .  S
C191        C232   1.531       .  S
C191        C258   1.565       .  S
C191        C289   1.566       .  S
C191        C329   1.574       .  S
C192        N210   1.360       .  A
C192        C229   1.477       .  S
N193        N210   1.331       .  A
N193        N215   1.318       .  A
N193       Co230   2.101   1_455  S
C194        N219   1.337       .  A
C194        C232   1.466       .  S
C194        H239   1.082       .  S
H195        C236   1.078       .  S
C196        N220   1.345       .  A
C196        C200   1.473       .  S
C196        H225   1.081       .  S
Co197       N215   2.101   1_655  S
Co197       N205   2.090   1_655  S
Co197       N237   2.102       .  S
Co197       N213   2.091       .  S
Co197      Cl241   2.468       .  S
N198        C236   1.344       .  A
N198        N205   1.318       .  A
N198       Co199   2.107   1_455  S
Co199       N202   2.089   1_655  S
Co199       N219   2.085       .  S
Co199       N206   2.095       .  S
Co199      Cl241   2.445       .  S
C200        N238   1.354       .  A
N201        N208   1.319       .  A
N201        N231   1.328       .  A
N201       Co234   2.091   1_455  S
N202        N220   1.320       .  A
N202        N238   1.327       .  A
N203        C232   1.355       .  A
N203        N213   1.326       .  A
H204        C229   1.074       .  S
N205        N226   1.327       .  A
N206        N224   1.319       .  A
N206        N211   1.327       .  A
C207        N211   1.352       .  A
C207        C235   1.478       .  S
N208        C223   1.330       .  A
N208       Co230   2.085   1_455  S
C209        N237   1.346       .  A
C209        C212   1.474       .  S
C209        H243   1.082       .  S
C212        N233   1.357       .  A
N213        N219   1.319       .  A
N214        C240   1.340       .  A
N214        N216   1.323       .  A
N214       Co230   2.090       .  S
N215        C229   1.337       .  A
N216        N244   1.324       .  A
N216       Co234   2.094       .  S
H217        C240   1.082       .  S
H218        C235   1.082       .  S
N220       Co234   2.111   1_455  S
N221        N233   1.328       .  A
N221        N237   1.319       .  A
N221       Co230   2.105       .  S
C222        N226   1.356       .  A
C222        C236   1.479       .  S
C223        C242   1.470       .  S
C223        H227   1.075       .  S
N224        C235   1.346       .  A
N224       Co234   2.109       .  S
C228        N244   1.351       .  A
C228        C240   1.467       .  S
Co230      Cl241   2.454       .  S
N231        C242   1.357       .  A
Co234      Cl241   2.471       .  S
C245        H255   1.084       .  S
C245        C246   1.404       .  A
C245        C250   1.400       .  A
C246        C251   1.482       .  S
C246        C247   1.401       .  A
C247        C248   1.393       .  A
C247        F252   1.357       .  S
C248        H253   1.082       .  S
C248        C249   1.418       .  A
C249        C250   1.422       .  A
C250        F254   1.358       .  S
C251        C256   1.400       .  A
C251        C260   1.406       .  A
C256        C257   1.384       .  A
C256        F261   1.357       .  S
C257        H262   1.074       .  S
C257        C258   1.417       .  A
C258        C259   1.419       .  A
C259        C260   1.403       .  A
C259        F263   1.358       .  S
C260        H264   1.082       .  S
C265        H275   1.084       .  S
C265        C266   1.393       .  A
C265        C270   1.391       .  A
C266        C271   1.490       .  S
C266        C267   1.407       .  A
C267        C268   1.406       .  A
C267        F272   1.357       .  S
C268        H273   1.081       .  S
C268        C269   1.419       .  A
C269        C270   1.431       .  A
C270        F274   1.348       .  S
C271        C276   1.412       .  A
C271        C280   1.396       .  A
C276        C277   1.406       .  A
C276        F281   1.357       .  S
C277        H282   1.083       .  S
C277        C278   1.410       .  A
C278        C279   1.428       .  A
C279        C280   1.393       .  A
C279        F283   1.356       .  S
C280        H284   1.083       .  S
C285        H295   1.082       .  S
C285        C286   1.398       .  A
C285        C290   1.403       .  A
C286        C291   1.479       .  S
C286        C287   1.399       .  A
C287        C288   1.390       .  A
C287        F292   1.358       .  S
C288        H293   1.076       .  S
C288        C289   1.418       .  A
C289        C290   1.426       .  A
C290        F294   1.353       .  S
C291        C296   1.398       .  A
C291        C300   1.395       .  A
C296        C297   1.399       .  A
C296        F301   1.358       .  S
C297        H302   1.070       .  S
C297        C298   1.421       .  A
C298        C299   1.430       .  A
C299        C300   1.397       .  A
C299        F303   1.357       .  S
C300        H304   1.084       .  S
C305        H315   1.083       .  S
C305        C306   1.402       .  A
C305        C310   1.412       .  A
C306        C311   1.489       .  S
C306        C307   1.395       .  A
C307        C308   1.397       .  A
C307        F312   1.358       .  S
C308        H313   1.062       .  S
C308        C309   1.423       .  A
C309        C310   1.430       .  A
C310        F314   1.356       .  S
C311        C316   1.404       .  A
C311        C320   1.393       .  A
C316        C317   1.413       .  A
C316        F321   1.347       .  S
C317        H322   1.078       .  S
C317        C318   1.415       .  A
C318        C319   1.426       .  A
C319        C320   1.391       .  A
C319        F323   1.354       .  S
C320        H324   1.085       .  S
C325        H335   1.084       .  S
C325        C326   1.399       .  A
C325        C330   1.404       .  A
C326        C331   1.470       .  S
C326        C327   1.392       .  A
C327        C328   1.388       .  A
C327        F332   1.360       .  S
C328        H333   1.071       .  S
C328        C329   1.423       .  A
C329        C330   1.425       .  A
C330        F334   1.355       .  S
C331        C336   1.396       .  A
C331        C340   1.401       .  A
C336        C337   1.376       .  A
C336        F341   1.358       .  S
C337        H342   1.083       .  S
C337        C338   1.414       .  A
C338        C339   1.422       .  A
C339        C340   1.409       .  A
C339        F343   1.354       .  S
C340        H344   1.080       .  S
C345        H355   1.070   1_545  S
C345        C346   1.400       .  A
C345        C350   1.405       .  A
C346        C351   1.482       .  S
C346        C347   1.399       .  A
C347        C348   1.387       .  A
C347        F352   1.357       .  S
C348        H353   1.083       .  S
C348        C349   1.418       .  A
C349        C350   1.416       .  A
C350        F354   1.355       .  S
C351        C356   1.405       .  A
C351        C360   1.400       .  A
C356        C357   1.409       .  A
C356        F361   1.356       .  S
C357        H362   1.083       .  S
C357        C358   1.405       .  A
C358        C359   1.425       .  A
C359        C360   1.396       .  A
C359        F363   1.359       .  S
C360        H364   1.084       .  S
C365        H375   1.083       .  S
C365        C366   1.402       .  A
C365        C370   1.403       .  A
C366        C371   1.474       .  S
C366        C367   1.393       .  A
C367        C368   1.388       .  A
C367        F372   1.359       .  S
C368        H373   1.073       .  S
C368        C369   1.423       .  A
C369        C370   1.425       .  A
C370        F374   1.355       .  S
C371        C376   1.393       .  A
C371        C380   1.403       .  A
C376        C377   1.385       .  A
C376        F381   1.359       .  S
C377        H382   1.071       .  S
C377        C378   1.420       .  A
C378        C379   1.424       .  A
C379        C380   1.407       .  A
C379        F383   1.354       .  S
C380        H384   1.083       .  S
C385        H395   1.083       .  S
C385        C386   1.401       .  A
C385        C390   1.399       .  A
C386        C391   1.480       .  S
C386        C387   1.398       .  A
C387        C388   1.389       .  A
C387        F392   1.358       .  S
C388        H393   1.071       .  S
C388        C389   1.418       .  A
C389        C390   1.425       .  A
C390        F394   1.356       .  S
C391        C396   1.399       .  A
C391        C400   1.400       .  A
C396        C397   1.391       .  A
C396        F401   1.358       .  S
C397        H402   1.073       .  S
C397        C398   1.420       .  A
C398        C399   1.421       .  A
C399        C400   1.396       .  A
C399        F403   1.354       .  S
C400        H404   1.080       .  S
C405        H415   1.081       .  S
C405        C406   1.403       .  A
C405        C410   1.409       .  A
C406        C411   1.483       .  S
C406        C407   1.398       .  A
C407        C408   1.389       .  A
C407        F412   1.357       .  S
C408        H413   1.079       .  S
C408        C409   1.420       .  A
C409        C410   1.422       .  A
C410        F414   1.355       .  S
C411        C416   1.393       .  A
C411        C420   1.402       .  A
C416        C417   1.391       .  A
C416        F421   1.358       .  S
C417        H422   1.072       .  S
C417        C418   1.423       .  A
C418        C419   1.431       .  A
C419        C420   1.411       .  A
C419        F423   1.354       .  S
C420        H424   1.083       .  S
C425        H435   1.085       .  S
C425        C426   1.391       .  A
C425        C430   1.388       .  A
C426        C431   1.472       .  S
C426        C427   1.404       .  A
C427        C428   1.402       .  A
C427        F432   1.357       .  S
C428        H433   1.083       .  S
C428        C429   1.419       .  A
C429        C430   1.425       .  A
C430        F434   1.345       .  S
C431        C436   1.403       .  A
C431        C440   1.392       .  A
C436        C437   1.403       .  A
C436        F441   1.357       .  S
C437        H442   1.083       .  S
C437        C438   1.419       .  A
C438        C439   1.428       .  A
C439        C440   1.386       .  A
C439        F443   1.353       .  S
C440        H444   1.085       .  S
C445        H455   1.082       .  S
C445        C446   1.401       .  A
C445        C450   1.402       .  A
C446        C451   1.473       .  S
C446        C447   1.396       .  A
C447        C448   1.389       .  A
C447        F452   1.359       .  S
C448        H453   1.074       .  S
C448        C449   1.420       .  A
C449        C450   1.419       .  A
C450        F454   1.357       .  S
C451        C456   1.394       .  A
C451        C460   1.399       .  A
C456        C457   1.388       .  A
C456        F461   1.359       .  S
C457        H462   1.075       .  S
C457        C458   1.421       .  A
C458        C459   1.430       .  A
C459        C460   1.405       .  A
C459        F463   1.354       .  S
C460        H464   1.083       .  S
C465        H475   1.080       .  S
C465        C466   1.403       .  A
C465        C470   1.405       .  A
C466        C471   1.479       .  S
C466        C467   1.395       .  A
C467        C468   1.388       .  A
C467        F472   1.358       .  S
C468        H473   1.074       .  S
C468        C469   1.422       .  A
C469        C470   1.421       .  A
C470        F474   1.354       .  S
C471        C476   1.397       .  A
C471        C480   1.404       .  A
C476        C477   1.389       .  A
C476        F481   1.356       .  S
C477        H482   1.073       .  S
C477        C478   1.417       .  A
C478        C479   1.420       .  A
C479        C480   1.403       .  A
C479        F483   1.358       .  S
C480        H484   1.083       .  S
C485        H495   1.083       .  S
C485        C486   1.410       .  A
C485        C490   1.406       .  A
C486        C491   1.490       .  S
C486        C487   1.409       .  A
C487        C488   1.396       .  A
C487        F492   1.357       .  S
C488        H493   1.083       .  S
C488        C489   1.412       .  A
C489        C490   1.411       .  A
C490        F494   1.357       .  S
C491        C496   1.401       .  A
C491        C500   1.403       .  A
C496        C497   1.393       .  A
C496        F501   1.357       .  S
C497        H502   1.075       .  S
C497        C498   1.419       .  A
C498        C499   1.427       .  A
C499        C500   1.402       .  A
C499        F503   1.355       .  S
C500        H504   1.083       .  S
C505        H515   1.084       .  S
C505        C506   1.404       .  A
C505        C510   1.405       .  A
C506        C511   1.488       .  S
C506        C507   1.400       .  A
C507        C508   1.395       .  A
C507        F512   1.358       .  S
C508        H513   1.075       .  S
C508        C509   1.421       .  A
C509        C510   1.427       .  A
C510        F514   1.355       .  S
C511        C516   1.401       .  A
C511        C520   1.403       .  A
C516        C517   1.393       .  A
C516        F521   1.357       .  S
C517        H522   1.072       .  S
C517        C518   1.418       .  A
C518        C519   1.421       .  A
C519        C520   1.401       .  A
C519        F523   1.357       .  S
C520        H524   1.083       .  S
C525        H535   1.086       .  S
C525        C526   1.392       .  A
C525        C530   1.388       .  A
C526        C531   1.481       .  S
C526        C527   1.409       .  A
C527        C528   1.409       .  A
C527        F532   1.355       .  S
C528        H533   1.081       .  S
C528        C529   1.418       .  A
C529        C530   1.429       .  A
C530        F534   1.352       .  S
C531        C536   1.408       .  A
C531        C540   1.390       .  A
C536        C537   1.409       .  A
C536        F541   1.355       .  S
C537        H542   1.083       .  S
C537        C538   1.419       .  A
C538        C539   1.427       .  A
C539        C540   1.385       .  A
C539        F543   1.348       .  S
C540        H544   1.083       .  S
C545        H555   1.085       .  S
C545        C546   1.393       .  A
C545        C550   1.381       .  A
C546        C551   1.475       .  S
C546        C547   1.404       .  A
C547        C548   1.410       .  A
C547        F552   1.356       .  S
C548        H553   1.081       .  S
C548        C549   1.416       .  A
C549        C550   1.422       .  A
C550        F554   1.357       .  S
C551        C556   1.393       .  A
C551        C560   1.405       .  A
C556        C557   1.380       .  A
C556        F561   1.359       .  S
C557        H562   1.074       .  S
C557        C558   1.418       .  A
C558        C559   1.420       .  A
C559        C560   1.412       .  A
C559        F563   1.355       .  S
C560        H564   1.083       .  S
C565        H575   1.082       .  S
C565        C566   1.395       .  A
C565        C570   1.392       .  A
C566        C571   1.485       .  S
C566        C567   1.403       .  A
C567        C568   1.406       .  A
C567        F572   1.354       .  S
C568        H573   1.082       .  S
C568        C569   1.418       .  A
C569        C570   1.421       .  A
C570        F574   1.346       .  S
C571        C576   1.404       .  A
C571        C580   1.394       .  A
C576        C577   1.409       .  A
C576        F581   1.358       .  S
C577        H582   1.082       .  S
C577        C578   1.419       .  A
C578        C579   1.436       .  A
C579        C580   1.397       .  A
C579        F583   1.352       .  S
C580        H584   1.085       .  S
C585        H595   1.082       .  S
C585        C586   1.406       .  A
C585        C590   1.402       .  A
C586        C591   1.498       .  S
C586        C587   1.415       .  A
C587        C588   1.405       .  A
C587        F592   1.357       .  S
C588        H593   1.083       .  S
C588        C589   1.408       .  A
C589        C590   1.416       .  A
C590        F594   1.358       .  S
C591        C596   1.409       .  A
C591        C600   1.399       .  A
C596        C597   1.407       .  A
C596        F601   1.356       .  S
C597        H602   1.083       .  S
C597        C598   1.420       .  A
C598        C599   1.422       .  A
C599        C600   1.388       .  A
C599        F603   1.349       .  S
C600        H604   1.080       .  S
C605        H615   1.083       .  S
C605        C606   1.402       .  A
C605        C610   1.405       .  A
C606        C611   1.475       .  S
C606        C607   1.392       .  A
C607        C608   1.391       .  A
C607        F612   1.359       .  S
C608        H613   1.066       .  S
C608        C609   1.423       .  A
C609        C610   1.424       .  A
C610        F614   1.357       .  S
C611        C616   1.395       .  A
C611        C620   1.405       .  A
C616        C617   1.385       .  A
C616        F621   1.358       .  S
C617        H622   1.079       .  S
C617        C618   1.413       .  A
C618        C619   1.421       .  A
C619        C620   1.409       .  A
C619        F623   1.356       .  S
C620        H624   1.083   1_455  S
C625        H635   1.085       .  S
C625        C626   1.394       .  A
C625        C630   1.390       .  A
C626        C631   1.478       .  S
C626        C627   1.401       .  A
C627        C628   1.407       .  A
C627        F632   1.356       .  S
C628        H633   1.082       .  S
C628        C629   1.424       .  A
C629        C630   1.426       .  A
C630        F634   1.345       .  S
C631        C636   1.401       .  A
C631        C640   1.394       .  A
C636        C637   1.411       .  A
C636        F641   1.353       .  S
C637        H642   1.075       .  S
C637        C638   1.421       .  A
C638        C639   1.421       .  A
C639        C640   1.381       .  A
C639        F643   1.356       .  S
C640        H644   1.084       .  S
C645        H655   1.083       .  S
C645        C646   1.405       .  A
C645        C650   1.400       .  A
C646        C651   1.494       .  S
C646        C647   1.412       .  A
C647        C648   1.407       .  A
C647        F652   1.356       .  S
C648        H653   1.083       .  S
C648        C649   1.409       .  A
C649        C650   1.418       .  A
C650        F654   1.357       .  S
C651        C656   1.402       .  A
C651        C660   1.404       .  A
C656        C657   1.388       .  A
C656        F661   1.355       .  S
C657        H662   1.079       .  S
C657        C658   1.418       .  A
C658        C659   1.420       .  A
C659        C660   1.407       .  A
C659        F663   1.356       .  S
C660        H664   1.074       .  S
C665        H675   1.080       .  S
C665        C666   1.404       .  A
C665        C670   1.386       .  A
C666        C671   1.493       .  S
C666        C667   1.416       .  A
C667        C668   1.410       .  A
C667        F672   1.357       .  S
C668        H673   1.083       .  S
C668        C669   1.409       .  A
C669        C670   1.412       .  A
C670        F674   1.358       .  S
C671        C676   1.408       .  A
C671        C680   1.404       .  A
C676        C677   1.394       .  A
C676        F681   1.356       .  S
C677        H682   1.079       .  S
C677        C678   1.411       .  A
C678        C679   1.422       .  A
C679        C680   1.397       .  A
C679        F683   1.357       .  S
C680        H684   1.081       .  S
C685        H695   1.085       .  S
C685        C686   1.394       .  A
C685        C690   1.385       .  A
C686        C691   1.478       .  S
C686        C687   1.401       .  A
C687        C688   1.409       .  A
C687        F692   1.350       .  S
C688        H693   1.080       .  S
C688        C689   1.416       .  A
C689        C690   1.422       .  A
C690        F694   1.355       .  S
C691        C696   1.393       .  A
C691        C700   1.402       .  A
C696        C697   1.387       .  A
C696        F701   1.359       .  S
C697        H702   1.071       .  S
C697        C698   1.419       .  A
C698        C699   1.424       .  A
C699        C700   1.410       .  A
C699        F703   1.356       .  S
C700        H704   1.082       .  S
C705        H715   1.085       .  S
C705        C706   1.390       .  A
C705        C710   1.392       .  A
C706        C711   1.481       .  S
C706        C707   1.400       .  A
C707        C708   1.404       .  A
C707        F712   1.357       .  S
C708        H713   1.078       .  S
C708        C709   1.423       .  A
C709        C710   1.434       .  A
C710        F714   1.348       .  S
C711        C716   1.402       .  A
C711        C720   1.393       .  A
C716        C717   1.403       .  A
C716        F721   1.357       .  S
C717        H722   1.077       .  S
C717        C718   1.419       .  A
C718        C719   1.433       .  A
C719        C720   1.394       .  A
C719        F723   1.353       .  S
C720        H724   1.084       .  S
C725        H735   1.084       .  S
C725        C726   1.394       .  A
C725        C730   1.395       .  A
C726        C731   1.486       .  S
C726        C727   1.406       .  A
C727        C728   1.412       .  A
C727        F732   1.356   1_545  S
C728        H733   1.082       .  S
C728        C729   1.420       .  A
C729        C730   1.430       .  A
C730        F734   1.350       .  S
C731        C736   1.407       .  A
C731        C740   1.392       .  A
C736        C737   1.413       .  A
C736        F741   1.356   1_545  S
C737        H742   1.081       .  S
C737        C738   1.421       .  A
C738        C739   1.427       .  A
C739        C740   1.384       .  A
C739        F743   1.355       .  S
C740        H744   1.081       .  S
C745        H755   1.083       .  S
C745        C746   1.393       .  A
C745        C750   1.388       .  A
C746        C751   1.482       .  S
C746        C747   1.407       .  A
C747        C748   1.407       .  A
C747        F752   1.357       .  S
C748        H753   1.081       .  S
C748        C749   1.422       .  A
C749        C750   1.427       .  A
C750        F754   1.352       .  S
C751        C756   1.406       .  A
C751        C760   1.393       .  A
C756        C757   1.408       .  A
C756        F761   1.357       .  S
C757        H762   1.083       .  S
C757        C758   1.420       .  A
C758        C759   1.429       .  A
C759        C760   1.391       .  A
C759        F763   1.350       .  S
C760        H764   1.083       .  S
C765        H775   1.083       .  S
C765        C766   1.407       .  A
C765        C770   1.411       .  A
C766        C771   1.488       .  S
C766        C767   1.398       .  A
C767        C768   1.395       .  A
C767        F772   1.359       .  S
C768        H773   1.077       .  S
C768        C769   1.424       .  A
C769        C770   1.422       .  A
C770        F774   1.355       .  S
C771        C776   1.392       .  A
C771        C780   1.410       .  A
C776        C777   1.388       .  A
C776        F781   1.358       .  S
C777        H782   1.071       .  S
C777        C778   1.425       .  A
C778        C779   1.419       .  A
C779        C780   1.416       .  A
C779        F783   1.358       .  S
C780        H784   1.082       .  S
C785        H795   1.084       .  S
C785        C786   1.392       .  A
C785        C790   1.392       .  A
C786        C791   1.481       .  S
C786        C787   1.403       .  A
C787        C788   1.403       .  A
C787        F792   1.357       .  S
C788        H793   1.079       .  S
C788        C789   1.421       .  A
C789        C790   1.433       .  A
C790        F794   1.349       .  S
C791        C796   1.404       .  A
C791        C800   1.389       .  A
C796        C797   1.408       .  A
C796        F801   1.357       .  S
C797        H802   1.080       .  S
C797        C798   1.425       .  A
C798        C799   1.431       .  A
C799        C800   1.390       .  A
C799        F803   1.343       .  S
C800        H804   1.085       .  S
C805        H815   1.083       .  S
C805        C806   1.402       .  A
C805        C810   1.403       .  A
C806        C811   1.480       .  S
C806        C807   1.399       .  A
C807        C808   1.386       .  A
C807        F812   1.358       .  S
C808        H813   1.075       .  S
C808        C809   1.418       .  A
C809        C810   1.425       .  A
C810        F814   1.354       .  S
C811        C816   1.399       .  A
C811        C820   1.398       .  A
C816        C817   1.394       .  A
C816        F821   1.358       .  S
C817        H822   1.070       .  S
C817        C818   1.420       .  A
C818        C819   1.431       .  A
C819        C820   1.399       .  A
C819        F823   1.356       .  S
C820        H824   1.084       .  S
C825        H835   1.085       .  S
C825        C826   1.393       .  A
C825        C830   1.388       .  A
C826        C831   1.483       .  S
C826        C827   1.407       .  A
C827        C828   1.410       .  A
C827        F832   1.357       .  S
C828        H833   1.083       .  S
C828        C829   1.421       .  A
C829        C830   1.428       .  A
C830        F834   1.352       .  S
C831        C836   1.402       .  A
C831        C840   1.395       .  A
C836        C837   1.402       .  A
C836        F841   1.358       .  S
C837        H842   1.079       .  S
C837        C838   1.423       .  A
C838        C839   1.430       .  A
C839        C840   1.397       .  A
C839        F843   1.349       .  S
C840        H844   1.083       .  S
C845        H855   1.083       .  S
C845        C846   1.393       .  A
C845        C850   1.376       .  A
C846        C851   1.476       .  S
C846        C847   1.403       .  A
C847        C848   1.412       .  A
C847        F852   1.357       .  S
C848        H853   1.082       .  S
C848        C849   1.422       .  A
C849        C850   1.418       .  A
C850        F854   1.352       .  S
C851        C856   1.395       .  A
C851        C860   1.402       .  A
C856        C857   1.386       .  A
C856        F861   1.360       .  S
C857        H862   1.072       .  S
C857        C858   1.420       .  A
C858        C859   1.423       .  A
C859        C860   1.409       .  A
C859        F863   1.356       .  S
C860        H864   1.076       .  S
C865        H875   1.082       .  S
C865        C866   1.398       .  A
C865        C870   1.395       .  A
C866        C871   1.500       .  S
C866        C867   1.405       .  A
C867        C868   1.409       .  A
C867        F872   1.357   1_455  S
C868        H873   1.080       .  S
C868        C869   1.424       .  A
C869        C870   1.426       .  A
C870        F874   1.345       .  S
C871        C876   1.414       .  A
C871        C880   1.407       .  A
C876        C877   1.407       .  A
C876        F881   1.357   1_455  S
C877        H882   1.083       .  S
C877        C878   1.410       .  A
C878        C879   1.417       .  A
C879        C880   1.404       .  A
C879        F883   1.358       .  S
C880        H884   1.082       .  S
C885        H895   1.085       .  S
C885        C886   1.394       .  A
C885        C890   1.380       .  A
C886        C891   1.482       .  S
C886        C887   1.404       .  A
C887        C888   1.415       .  A
C887        F892   1.357       .  S
C888        H893   1.080       .  S
C888        C889   1.418       .  A
C889        C890   1.423       .  A
C890        F894   1.357       .  S
C891        C896   1.398       .  A
C891        C900   1.402       .  A
C896        C897   1.391       .  A
C896        F901   1.359       .  S
C897        H902   1.072       .  S
C897        C898   1.420       .  A
C898        C899   1.422       .  A
C899        C900   1.410       .  A
C899        F903   1.358       .  S
C900        H904   1.081       .  S
C905        H915   1.085       .  S
C905        C906   1.392       .  A
C905        C910   1.392       .  A
C906        C911   1.492       .  S
C906        C907   1.406       .  A
C907        C908   1.416       .  A
C907        F912   1.357       .  S
C908        H913   1.082       .  S
C908        C909   1.427       .  A
C909        C910   1.430       .  A
C910        F914   1.345       .  S
C911        C916   1.401       .  A
C911        C920   1.405       .  A
C916        C917   1.384       .  A
C916        F921   1.358       .  S
C917        H922   1.083       .  S
C917        C918   1.417       .  A
C918        C919   1.423       .  A
C919        C920   1.418       .  A
C919        F923   1.351       .  S
C920        H924   1.081       .  S
C925        H935   1.083       .  S
C925        C926   1.400       .  A
C925        C930   1.401       .  A
C926        C931   1.489       .  S
C926        C927   1.407       .  A
C927        C928   1.404       .  A
C927        F932   1.357       .  S
C928        H933   1.082       .  S
C928        C929   1.415       .  A
C929        C930   1.425       .  A
C930        F934   1.357       .  S
C931        C936   1.406       .  A
C931        C940   1.394       .  A
C936        C937   1.411       .  A
C936        F941   1.356       .  S
C937        H942   1.082       .  S
C937        C938   1.420       .  A
C938        C939   1.425       .  A
C939        C940   1.389       .  A
C939        F943   1.347       .  S
C940        H944   1.084       .  S
C945        H955   1.082       .  S
C945        C946   1.403       .  A
C945        C950   1.404       .  A
C946        C951   1.499       .  S
C946        C947   1.404       .  A
C947        C948   1.394       .  A
C947        F952   1.355       .  S
C948        H953   1.069       .  S
C948        C949   1.417       .  A
C949        C950   1.425       .  A
C950        F954   1.355       .  S
C951        C956   1.407       .  A
C951        C960   1.411       .  A
C956        C957   1.396       .  A
C956        F961   1.357       .  S
C957        H962   1.082       .  S
C957        C958   1.416       .  A
C958        C959   1.413       .  A
C959        C960   1.409       .  A
C959        F963   1.357       .  S
C960        H964   1.082       .  S
C965        H975   1.084       .  S
C965        C966   1.390       .  A
C965        C970   1.390       .  A
C966        C971   1.492       .  S
C966        C967   1.411       .  A
C967        C968   1.411       .  A
C967        F972   1.356       .  S
C968        H973   1.083       .  S
C968        C969   1.417       .  A
C969        C970   1.433       .  A
C970        F974   1.347       .  S
C971        C976   1.410       .  A
C971        C980   1.389       .  A
C976        C977   1.408       .  A
C976        F981   1.356       .  S
C977        H982   1.081       .  S
C977        C978   1.420       .  A
C978        C979   1.435       .  A
C979        C980   1.394       .  A
C979        F983   1.342       .  S
C980        H984   1.084       .  S
C985        H995   1.082       .  S
C985        C986   1.395       .  A
C985        C990   1.387       .  A
C986        C991   1.486       .  S
C986        C987   1.407       .  A
C987        C988   1.406       .  A
C987        F992   1.356   1_556  S
C988        H993   1.081       .  S
C988        C989   1.420       .  A
C989        C990   1.426       .  A
C990        F994   1.354       .  S
C991        C996   1.413       .  A
C991       C1000   1.400       .  A
C996        C997   1.406       .  A
C996       F1001   1.357       .  S
C997       H1002   1.083       .  S
C997        C998   1.397       .  A
C998        C999   1.424       .  A
C999       C1000   1.398       .  A
C999       F1003   1.358       .  S
C1000      H1004   1.082       .  S
C1005      H1015   1.084       .  S
C1005      C1006   1.393       .  A
C1005      C1010   1.386       .  A
C1006      C1011   1.486       .  S
C1006      C1007   1.410       .  A
C1007      C1008   1.408       .  A
C1007      F1012   1.356   1_455  S
C1008      H1013   1.080       .  S
C1008      C1009   1.418       .  A
C1009      C1010   1.429       .  A
C1010      F1014   1.356       .  S
C1011      C1016   1.402       .  A
C1011      C1020   1.390       .  A
C1016      C1017   1.404       .  A
C1016      F1021   1.358       .  S
C1017      H1022   1.081       .  S
C1017      C1018   1.425       .  A
C1018      C1019   1.435       .  A
C1019      C1020   1.396       .  A
C1019      F1023   1.342       .  S
C1020      H1024   1.087       .  S
C1025      H1035   1.085       .  S
C1025      C1026   1.390       .  A
C1025      C1030   1.386       .  A
C1026      C1031   1.471       .  S
C1026      C1027   1.404       .  A
C1027      C1028   1.404       .  A
C1027      F1032   1.357       .  S
C1028      H1033   1.083       .  S
C1028      C1029   1.416       .  A
C1029      C1030   1.432       .  A
C1030      F1034   1.352       .  S
C1031      C1036   1.402       .  A
C1031      C1040   1.394       .  A
C1036      C1037   1.401       .  A
C1036      F1041   1.357       .  S
C1037      H1042   1.081       .  S
C1037      C1038   1.418       .  A
C1038      C1039   1.421       .  A
C1039      C1040   1.388       .  A
C1039      F1043   1.350       .  S
C1040      H1044   1.082       .  S
C1045      H1055   1.082       .  S
C1045      C1046   1.412       .  A
C1045      C1050   1.402       .  A
C1046      C1051   1.498       .  S
C1046      C1047   1.413       .  A
C1047      C1048   1.395       .  A
C1047      F1052   1.357       .  S
C1048      H1053   1.083       .  S
C1048      C1049   1.408       .  A
C1049      C1050   1.409       .  A
C1050      F1054   1.357       .  S
C1051      C1056   1.404       .  A
C1051      C1060   1.403       .  A
C1056      C1057   1.389       .  A
C1056      F1061   1.356       .  S
C1057      H1062   1.068       .  S
C1057      C1058   1.418       .  A
C1058      C1059   1.427       .  A
C1059      C1060   1.398       .  A
C1059      F1063   1.356       .  S
C1060      H1064   1.080       .  S
C1065      H1075   1.082       .  S
C1065      C1066   1.404       .  A
C1065      C1070   1.412       .  A
C1066      C1071   1.473       .  S
C1066      C1067   1.392       .  A
C1067      C1068   1.376       .  A
C1067      F1072   1.360       .  S
C1068      H1073   1.075       .  S
C1068      C1069   1.417       .  A
C1069      C1070   1.418       .  A
C1070      F1074   1.355       .  S
C1071      C1076   1.403       .  A
C1071      C1080   1.393       .  A
C1076      C1077   1.407       .  A
C1076      F1081   1.350       .  S
C1077      H1082   1.086       .  S
C1077      C1078   1.413       .  A
C1078      C1079   1.419       .  A
C1079      C1080   1.380       .  A
C1079      F1083   1.353       .  S
C1080      H1084   1.086       .  S
C1085      H1095   1.086       .  S
C1085      C1086   1.386       .  A
C1085      C1090   1.382       .  A
C1086      C1091   1.477       .  S
C1086      C1087   1.401       .  A
C1087      C1088   1.410       .  A
C1087      F1092   1.357       .  S
C1088      H1093   1.080       .  S
C1088      C1089   1.424       .  A
C1089      C1090   1.432       .  A
C1090      F1094   1.347       .  S
C1091      C1096   1.399       .  A
C1091      C1100   1.399       .  A
C1096      C1097   1.388       .  A
C1096      F1101   1.359       .  S
C1097      H1102   1.083       .  S
C1097      C1098   1.418       .  A
C1098      C1099   1.417       .  A
C1099      C1100   1.409       .  A
C1099      F1103   1.354       .  S
C1100      H1104   1.072   1_455  S
C1105      H1115   1.078       .  S
C1105      C1106   1.406       .  A
C1105      C1110   1.391       .  A
C1106      C1111   1.506       .  S
C1106      C1107   1.421       .  A
C1107      C1108   1.409       .  A
C1107      F1112   1.356       .  S
C1108      H1113   1.083       .  S
C1108      C1109   1.404       .  A
C1109      C1110   1.417       .  A
C1110      F1114   1.358       .  S
C1111      C1116   1.420       .  A
C1111      C1120   1.407       .  A
C1116      C1117   1.402       .  A
C1116      F1121   1.355       .  S
C1117      H1122   1.083       .  S
C1117      C1118   1.402       .  A
C1118      C1119   1.416       .  A
C1119      C1120   1.395       .  A
C1119      F1123   1.358       .  S
C1120      H1124   1.080       .  S
C1125      H1135   1.076   1_545  S
C1125      C1126   1.399       .  A
C1125      C1130   1.408       .  A
C1126      C1131   1.472       .  S
C1126      C1127   1.395       .  A
C1127      C1128   1.382       .  A
C1127      F1132   1.358       .  S
C1128      H1133   1.076       .  S
C1128      C1129   1.415       .  A
C1129      C1130   1.419       .  A
C1130      F1134   1.354       .  S
C1131      C1136   1.397       .  A
C1131      C1140   1.397       .  A
C1136      C1137   1.391       .  A
C1136      F1141   1.359       .  S
C1137      H1142   1.071       .  S
C1137      C1138   1.418       .  A
C1138      C1139   1.423       .  A
C1139      C1140   1.402       .  A
C1139      F1143   1.357       .  S
C1140      H1144   1.083       .  S
C1145      H1155   1.083       .  S
C1145      C1146   1.393       .  A
C1145      C1150   1.381       .  A
C1146      C1151   1.470       .  S
C1146      C1147   1.401       .  A
C1147      C1148   1.406       .  A
C1147      F1152   1.353       .  S
C1148      H1153   1.080       .  S
C1148      C1149   1.415       .  A
C1149      C1150   1.419       .  A
C1150      F1154   1.358       .  S
C1151      C1156   1.399       .  A
C1151      C1160   1.395       .  A
C1156      C1157   1.403       .  A
C1156      F1161   1.358       .  S
C1157      H1162   1.083       .  S
C1157      C1158   1.429       .  A
C1158      C1159   1.419       .  A
C1159      C1160   1.392       .  A
C1159      F1163   1.345       .  S
C1160      H1164   1.084       .  S
C1165      H1175   1.082       .  S
C1165      C1166   1.411       .  A
C1165      C1170   1.416       .  A
C1166      C1171   1.489       .  S
C1166      C1167   1.396       .  A
C1167      C1168   1.383       .  A
C1167      F1172   1.359       .  S
C1168      H1173   1.076       .  S
C1168      C1169   1.426       .  A
C1169      C1170   1.413       .  A
C1170      F1174   1.358       .  S
C1171      C1176   1.398       .  A
C1171      C1180   1.402       .  A
C1176      C1177   1.399       .  A
C1176      F1181   1.359       .  S
C1177      H1182   1.070       .  S
C1177      C1178   1.424       .  A
C1178      C1179   1.423       .  A
C1179      C1180   1.401       .  A
C1179      F1183   1.356       .  S
C1180      H1184   1.084       .  S
C1185      H1195   1.083       .  S
C1185      C1186   1.393       .  A
C1185      C1190   1.376       .  A
C1186      C1191   1.477       .  S
C1186      C1187   1.404       .  A
C1187      C1188   1.407       .  A
C1187      F1192   1.354       .  S
C1188      H1193   1.080       .  S
C1188      C1189   1.418       .  A
C1189      C1190   1.423       .  A
C1190      F1194   1.356       .  S
C1191      C1196   1.405       .  A
C1191      C1200   1.404       .  A
C1196      C1197   1.388       .  A
C1196      F1201   1.358       .  S
C1197      H1202   1.083       .  S
C1197      C1198   1.413       .  A
C1198      C1199   1.411       .  A
C1199      C1200   1.408       .  A
C1199      F1203   1.357       .  S
C1200      H1204   1.083       .  S
