geometry optimzed in LAMMPS
_audit_creation_date              2020-11-30 
_audit_creation_method            'lammps2cif' 
_symmetry_space_group_name_H-M    'P1' 
_symmetry_Int_Tables_number       1 
_symmetry_cell_setting            triclinic 
loop_ 
_symmetry_equiv_pos_as_xyz 
  x,y,z 
_cell_length_a                    25.377580064870116 
_cell_length_b                    25.453620071225856 
_cell_length_c                    25.51473496284343 
_cell_angle_alpha                 90.53734464813711 
_cell_angle_beta                  89.68252894457395 
_cell_angle_gamma                 90.99423181160738 
loop_ 
_atom_site_label 
_atom_site_type_symbol 
_atom_site_fract_x 
_atom_site_fract_y 
_atom_site_fract_z 
_atom_site_charge 
C1          C  0.30443933  0.30227140  0.30045698    -0.01520
C2          C  0.41935473  0.05004349  0.29977679    -0.01520
C3          C  0.05150599  0.30025715  0.41904369    -0.01520
C4          C  0.16755682  0.16770116  0.17077469    -0.01520
C5          C  0.30051173  0.41659355  0.04980068    -0.01520
C6          C  0.41716783  0.16840534  0.05398593    -0.01520
C7          C  0.17013642  0.04815233  0.41904861    -0.01520
C8          C  0.04985699  0.41485342  0.16700928    -0.01520
Zn9        Zn  0.49763061  0.05197873  0.45165422     1.49720
Zn10       Zn  0.05562383  0.45262571  0.49715917     1.49360
Zn11       Zn  0.45182339  0.49441710  0.05215692     1.49110
Zn12       Zn  0.44174132  0.43852781  0.43928215     1.49480
O13         O  0.48508776  0.48311949  0.48395304    -1.83150
O14         O  0.07361790  0.06034624  0.42228164    -0.73780
O15         O  0.06981302  0.42251281  0.07149535    -0.73600
O16         O  0.42665474  0.07169423  0.06666011    -0.73120
O17         O  0.10831914  0.51043762  0.48227964    -0.73800
O18         O  0.47125892  0.10810137  0.50159857    -0.73400
O19         O  0.49835010  0.45939567  0.10212282    -0.73980
O20         O  0.37350729  0.41812035  0.48474476    -0.73370
O21         O  0.06946226  0.38954282  0.45039407    -0.74130
O22         O  0.38757460  0.45235244  0.06391937    -0.73520
O23         O  0.48786934  0.37208126  0.42244297    -0.73990
O24         O  0.42399501  0.48247898  0.37025498    -0.73900
O25         O  0.45553711  0.06252603  0.38697838    -0.73680
C26         C  0.11394057  0.03909264  0.44175451     0.78100
C27         C  0.03933995  0.43199746  0.10985600     0.78590
C28         C  0.43920769  0.11257426  0.04036806     0.77550
C29         C  0.35854764  0.42643865  0.03270774     0.77930
C30         C  0.03626054  0.35840450  0.42865931     0.79070
C31         C  0.43198627  0.03069230  0.35621190     0.78120
Zn32       Zn  0.26852244  0.47345171  0.30287254     1.49720
Zn33       Zn  0.16499113  0.01573067  0.24860400     1.49360
Zn34       Zn  0.27895202  0.02941549  0.18979190     1.49110
Zn35       Zn  0.22419139  0.41633529  0.20097186     1.49480
O36         O  0.23503135  0.48486106  0.23431452    -1.83150
O37         O  0.22107257  0.50534735  0.35266408    -0.73780
O38         O  0.15513643  0.08158698  0.20901863    -0.73600
O39         O  0.34746531  0.04763147  0.23477433    -0.73120
O40         O  0.14755222  0.03906186  0.32478279    -0.73800
O41         O  0.33174773  0.01696112  0.31477554    -0.73400
O42         O  0.23399880  0.09704227  0.17406965    -0.73980
O43         O  0.26317893  0.40641011  0.13565499    -0.73370
O44         O  0.11151919  0.46671314  0.21938080    -0.74130
O45         O  0.29675410  0.48553259  0.11960644    -0.73520
O46         O  0.14644136  0.40037869  0.17648675    -0.73990
O47         O  0.26181966  0.36701659  0.24703700    -0.73900
O48         O  0.29302890  0.39764524  0.32164541    -0.73680
C49         C  0.17906630  0.03039944  0.36199362     0.78100
C50         C  0.18639127  0.11153828  0.18382069     0.78590
C51         C  0.36175896  0.04051269  0.28279752     0.77550
C52         C  0.28793265  0.43721641  0.10554411     0.77930
C53         C  0.10617186  0.42759824  0.18824687     0.79070
C54         C  0.28710395  0.35949411  0.28956906     0.78120
Zn55       Zn  0.19075536  0.27513834  0.03190213     1.49720
Zn56       Zn  0.30295207  0.26527200  0.47269764     1.49360
Zn57       Zn  0.24324786  0.16345198  0.02060938     1.49110
Zn58       Zn  0.20316662  0.21949139  0.41616189     1.49480
O59         O  0.23392901  0.23183264  0.48588481    -1.83150
O60         O  0.24069320  0.33839947  0.05750273    -0.73780
O61         O  0.35160969  0.22016572  0.51111307    -0.73600
O62         O  0.20274273  0.15246902  0.08485967    -0.73120
O63         O  0.31183880  0.33275642  0.00780253    -0.73800
O64         O  0.16892949  0.23101843  0.09834367    -0.73400
O65         O  0.32107497  0.14541788  0.04280882    -0.73980
O66         O  0.18563562  0.14177689  0.39782963    -0.73370
O67         O  0.32174471  0.28812793  0.39568449    -0.74130
O68         O  0.20546089  0.11293539  0.47656093    -0.73520
O69         O  0.24960535  0.25331544  0.36278713    -0.73990
O70         O  0.13567880  0.25757648  0.40975626    -0.73900
O71         O  0.12279274  0.29711469  0.48665881    -0.73680
C72         C  0.28458290  0.35811422  0.04046636     0.78100
C73         C  0.35940414  0.17789853  0.03646794     0.78590
C74         C  0.17731024  0.18374349  0.11350862     0.77550
C75         C  0.18664964  0.10482715  0.43111360     0.77930
C76         C  0.29148478  0.28087060  0.35646824     0.79070
C77         C  0.10732027  0.28588751  0.43946092     0.78120
Zn78       Zn  0.47877150  0.30212892  0.26644985     1.49720
Zn79       Zn  0.03042453  0.18923584  0.28113245     1.49360
Zn80       Zn  0.41700560  0.20319425  0.22828746     1.49110
Zn81       Zn  0.01598764  0.24072797  0.16771351     1.49480
O82         O  0.48703261  0.23231956  0.23731792    -1.83150
O83         O  0.01056991  0.31013789  0.33567319    -0.73780
O84         O  0.48194661  0.12544572  0.30695671    -0.73600
O85         O  0.37140369  0.24126883  0.28042243    -0.73120
O86         O  0.05791101  0.23816545  0.34417403    -0.73800
O87         O  0.39832184  0.32398338  0.27523680    -0.73400
O88         O  0.41018851  0.13343334  0.25847144    -0.73980
O89         O  0.47809130  0.18980014  0.12079259    -0.73370
O90         O  0.09300577  0.16222793  0.23315164    -0.74130
O91         O  0.39529685  0.19320859  0.14745301    -0.73560
O92         O  0.08478011  0.20952688  0.16109985    -0.73990
O93         O  0.02611057  0.32094379  0.14583820    -0.73900
O94         O  0.02924476  0.34846691  0.22807278    -0.73680
C95         C  0.04321615  0.28365337  0.36136051     0.78100
C96         C  0.43660525  0.10782789  0.29118178     0.78590
C97         C  0.36225400  0.28986493  0.28639102     0.77550
C98         C  0.42945272  0.18243461  0.11167367     0.77930
C99         C  0.11006293  0.17678977  0.18766011     0.79070
C100        C  0.03595739  0.35729470  0.17965682     0.78120
C101        C  0.28877793  0.49745062  0.49418212    -0.20330
C102        C  0.26735634  0.44990471  0.01402898    -0.08380
C103        C  0.21630578  0.43425671  0.99732039     0.30480
C104        C  0.19269205  0.46067657  0.45797463    -0.20330
C105        C  0.20800930  0.01272349  0.44885243    -0.08390
C106        C  0.26086063  0.02692406  0.45970632     0.30490
F107        F  0.28575450  0.06851598  0.43668282    -0.18910
H108        H  0.32729972  0.01263483  0.00525885     0.18850
H109        H  0.15693034  0.44407743  0.44136522     0.18860
F110        F  0.18466577  0.39939531  0.02236248    -0.18900
C111        C  0.00731153  0.28197078  0.00543904    -0.20330
C112        C  0.01197442  0.26881246  0.45190000    -0.08380
C113        C  0.47617832  0.23025595  0.43133786     0.30480
C114        C  0.44696341  0.19975433  0.46476189    -0.20330
C115        C  0.44884956  0.20761445  0.01929172    -0.08390
C116        C  0.47221021  0.25511041  0.03726125     0.30490
F117        F  0.45758744  0.27843665  0.08289413    -0.18910
H118        H  0.02837269  0.31550933  0.02199375     0.18850
H119        H  0.42165835  0.16936095  0.44782198     0.18860
F120        F  0.46648886  0.22147514  0.37975310    -0.18900
C121        C  0.99030639  0.03716479  0.22934844    -0.20330
C122        C  0.45071836  0.01589615  0.26229673    -0.08380
C123        C  0.43716079  0.46209498  0.25622462     0.30480
C124        C  0.46534407  0.43091157  0.22245275    -0.20330
C125        C  0.01178738  0.45018499  0.19861420    -0.08390
C126        C  0.01958611  0.50531337  0.19773392     0.30490
F127        F  0.05634146  0.02849274  0.16599019    -0.18910
H128        H  0.99986730  0.07853178  0.22665619     0.18850
H129        H  0.45007486  0.39160500  0.21548335     0.18860
F130        F  0.39512814  0.43964577  0.28093342    -0.18900
C131        C  0.18122036  0.24021700  0.23970737    -0.20330
C132        C  0.20228452  0.20562258  0.20177572    -0.08380
C133        C  0.25643964  0.21057883  0.18943864     0.30480
C134        C  0.28797903  0.24494035  0.21719257    -0.20330
C135        C  0.26876001  0.27021480  0.26253302    -0.08390
C136        C  0.21348275  0.27202610  0.26904128     0.30490
F137        F  0.19041545  0.30529900  0.30403655    -0.18910
H138        H  0.13978702  0.24416883  0.24790189     0.18850
H139        H  0.32736527  0.25125719  0.20223241     0.18860
F140        F  0.27902995  0.18441941  0.14881255    -0.18900
C141        C  0.30443778  0.30227050  0.80045530    -0.01520
C142        C  0.41935148  0.05004337  0.79977656    -0.01520
C143        C  0.05150632  0.30026352  0.91904106    -0.01520
C144        C  0.16755419  0.16769826  0.67077713    -0.01520
C145        C  0.30050529  0.41658606  0.54979931    -0.01520
C146        C  0.41716521  0.16839967  0.55398723    -0.01520
C147        C  0.17013068  0.04814905  0.91905192    -0.01520
C148        C  0.04985461  0.41485165  0.66701069    -0.01520
Zn149      Zn  0.49762781  0.05198275  0.95165105     1.49720
Zn150      Zn  0.05562401  0.45263461  0.99715795     1.49360
Zn151      Zn  0.45181969  0.49441005  0.55215608     1.49110
Zn152      Zn  0.44174294  0.43853176  0.93928337     1.49480
O153        O  0.48508716  0.48312427  0.98395279    -1.83150
O154        O  0.07361215  0.06034453  0.92226984    -0.73780
O155        O  0.06981383  0.42251087  0.57149813    -0.73600
O156        O  0.42665037  0.07168761  0.56666077    -0.73120
O157        O  0.10830559  0.51046938  0.98229766    -0.73800
O158        O  0.47126109  0.10810757  0.00159601    -0.73400
O159        O  0.49834713  0.45938986  0.60212258    -0.73980
O160        O  0.37351455  0.41812315  0.98475025    -0.73370
O161        O  0.06946575  0.38955248  0.95038651    -0.74130
O162        O  0.38757028  0.45234301  0.56391580    -0.73520
O163        O  0.48787073  0.37208729  0.92244330    -0.73990
O164        O  0.42399366  0.48248036  0.87025576    -0.73900
O165        O  0.45553046  0.06252938  0.88697866    -0.73680
C166        C  0.11393270  0.03910025  0.94175631     0.78100
C167        C  0.03933852  0.43199435  0.60985734     0.78590
C168        C  0.43920449  0.11256803  0.54036970     0.77550
C169        C  0.35854119  0.42643271  0.53270299     0.77930
C170        C  0.03626259  0.35841186  0.92865599     0.79070
C171        C  0.43198236  0.03069380  0.85621217     0.78120
Zn172      Zn  0.26851913  0.47344930  0.80287464     1.49720
Zn173      Zn  0.16498899  0.01572834  0.74860635     1.49360
Zn174      Zn  0.27894929  0.02941316  0.68979084     1.49110
Zn175      Zn  0.22418847  0.41633513  0.70097323     1.49480
O176        O  0.23502874  0.48485983  0.73431594    -1.83150
O177        O  0.22106764  0.50533707  0.85267180    -0.73780
O178        O  0.15513409  0.08158485  0.70902206    -0.73600
O179        O  0.34746263  0.04762909  0.73477344    -0.73120
O180        O  0.14755220  0.03905858  0.82478542    -0.73800
O181        O  0.33174391  0.01696177  0.81477598    -0.73400
O182        O  0.23399574  0.09703954  0.67407096    -0.73980
O183        O  0.26317463  0.40641160  0.63565613    -0.73370
O184        O  0.11151600  0.46671145  0.71938331    -0.74130
O185        O  0.29675013  0.48553195  0.61960209    -0.73520
O186        O  0.14643888  0.40037786  0.67648850    -0.73990
O187        O  0.26181733  0.36701617  0.74703691    -0.73900
O188        O  0.29302929  0.39764398  0.82164446    -0.73680
C189        C  0.17906214  0.03039153  0.86199863     0.78100
C190        C  0.18638857  0.11153577  0.68382332     0.78590
C191        C  0.36175570  0.04051196  0.78279714     0.77550
C192        C  0.28792731  0.43721539  0.60554197     0.77930
C193        C  0.10616913  0.42759685  0.68824886     0.79070
C194        C  0.28710287  0.35949323  0.78956809     0.78120
Zn195      Zn  0.19075636  0.27513496  0.53190988     1.49720
Zn196      Zn  0.30295393  0.26527652  0.97269673     1.49360
Zn197      Zn  0.24324333  0.16345033  0.52061120     1.49110
Zn198      Zn  0.20316371  0.21949136  0.91616005     1.49480
O199        O  0.23392969  0.23183464  0.98588169    -1.83150
O200        O  0.24070015  0.33838713  0.55753323    -0.73780
O201        O  0.35161075  0.22016775  0.01110953    -0.73600
O202        O  0.20274367  0.15246712  0.58486371    -0.73120
O203        O  0.31182447  0.33275294  0.50779917    -0.73800
O204        O  0.16892356  0.23101318  0.59834548    -0.73400
O205        O  0.32107213  0.14541316  0.54280571    -0.73980
O206        O  0.18562059  0.14177635  0.89783289    -0.73370
O207        O  0.32174125  0.28813250  0.89568335    -0.74130
O208        O  0.20547700  0.11293254  0.97655488    -0.73520
O209        O  0.24960599  0.25331076  0.86278441    -0.73990
O210        O  0.13567892  0.25758251  0.90975215    -0.73900
O211        O  0.12279136  0.29711686  0.98665581    -0.73680
C212        C  0.28458084  0.35810560  0.54047745     0.78100
C213        C  0.35940173  0.17789455  0.53646889     0.78590
C214        C  0.17730740  0.18373954  0.61351120     0.77550
C215        C  0.18665041  0.10482424  0.93111359     0.77930
C216        C  0.29148343  0.28086970  0.85646636     0.79070
C217        C  0.10731994  0.28589236  0.93945750     0.78120
Zn218      Zn  0.47876918  0.30212830  0.76644927     1.49720
Zn219      Zn  0.03042205  0.18923619  0.78113368     1.49360
Zn220      Zn  0.41700351  0.20319336  0.72828714     1.49110
Zn221      Zn  0.01598508  0.24072543  0.66771384     1.49480
O222        O  0.48703049  0.23231856  0.73731816    -1.83150
O223        O  0.01056800  0.31014130  0.83567160    -0.73780
O224        O  0.48194328  0.12544590  0.80695691    -0.73600
O225        O  0.37140197  0.24126806  0.78042167    -0.73120
O226        O  0.05790901  0.23816896  0.84417353    -0.73800
O227        O  0.39831989  0.32398267  0.77523524    -0.73400
O228        O  0.41018571  0.13343281  0.75847058    -0.73980
O229        O  0.47808889  0.18979476  0.62079420    -0.73370
O230        O  0.09300330  0.16222674  0.73315424    -0.74130
O231        O  0.39529435  0.19320632  0.64745331    -0.73560
O232        O  0.08477761  0.20952420  0.66110154    -0.73990
O233        O  0.02610805  0.32094196  0.64583874    -0.73900
O234        O  0.02924295  0.34846497  0.72807327    -0.73680
C235        C  0.04321524  0.28365789  0.86135864     0.78100
C236        C  0.43660221  0.10782767  0.79118122     0.78590
C237        C  0.36225222  0.28986415  0.78638961     0.77550
C238        C  0.42945023  0.18242990  0.61167484     0.77930
C239        C  0.11006041  0.17678754  0.68766245     0.79070
C240        C  0.03595511  0.35729286  0.67965752     0.78120
C241        C  0.28879591  0.49743923  0.99414255    -0.20330
C242        C  0.26734959  0.44989127  0.51402071    -0.08380
C243        C  0.21632475  0.43421766  0.49724981     0.30480
C244        C  0.19267011  0.46068524  0.95802599    -0.20330
C245        C  0.20800028  0.01272100  0.94886060    -0.08390
C246        C  0.26086298  0.02691054  0.95967740     0.30490
F247        F  0.28575114  0.06849205  0.93662959    -0.18910
H248        H  0.32726689  0.01265600  0.50533637     0.18850
H249        H  0.15689797  0.44408311  0.94144393     0.18860
F250        F  0.18469425  0.39928935  0.52220948    -0.18900
C251        C  0.00731161  0.28196298  0.50544087    -0.20330
C252        C  0.01197406  0.26882005  0.95189815    -0.08380
C253        C  0.47617739  0.23026370  0.93133651     0.30480
C254        C  0.44696436  0.19976100  0.96476084    -0.20330
C255        C  0.44884792  0.20760799  0.51929283    -0.08390
C256        C  0.47220929  0.25510356  0.53726246     0.30490
F257        F  0.45758630  0.27843062  0.58289486    -0.18910
H258        H  0.02837295  0.31550121  0.52199598     0.18850
H259        H  0.42165951  0.16936733  0.94782110     0.18860
F260        F  0.46648546  0.22148399  0.87975201    -0.18900
C261        C  0.99030359  0.03716381  0.72934833    -0.20330
C262        C  0.45071581  0.01589551  0.76229726    -0.08380
C263        C  0.43715872  0.46209413  0.75622627     0.30480
C264        C  0.46534202  0.43091019  0.72245474    -0.20330
C265        C  0.01178459  0.45018357  0.69861484    -0.08390
C266        C  0.01958305  0.50531196  0.69773371     0.30490
F267        F  0.05633854  0.02849084  0.66598975    -0.18910
H268        H  0.99986433  0.07853078  0.72665574     0.18850
H269        H  0.45007318  0.39160340  0.71548639     0.18860
F270        F  0.39512647  0.43964516  0.78093590    -0.18900
C271        C  0.18121850  0.24021574  0.73970780    -0.20330
C272        C  0.20228240  0.20562024  0.70177701    -0.08380
C273        C  0.25643755  0.21057628  0.68943932     0.30480
C274        C  0.28797702  0.24493888  0.71719175    -0.20330
C275        C  0.26875826  0.27021432  0.76253155    -0.08390
C276        C  0.21348112  0.27202569  0.76904047     0.30490
F277        F  0.19041438  0.30529849  0.80403622    -0.18910
H278        H  0.13978527  0.24416753  0.74790282     0.18850
H279        H  0.32736326  0.25125526  0.70223139     0.18860
F280        F  0.27902802  0.18441553  0.64881422    -0.18900
C281        C  0.30443644  0.80226419  0.30045999    -0.01520
C282        C  0.41930728  0.55004109  0.29977505    -0.01520
C283        C  0.05151923  0.80024887  0.41905948    -0.01520
C284        C  0.16754431  0.66769414  0.17078457    -0.01520
C285        C  0.30053720  0.91657358  0.04979855    -0.01520
C286        C  0.41715500  0.66842329  0.05399405    -0.01520
C287        C  0.17005632  0.54812720  0.41906152    -0.01520
C288        C  0.04989762  0.91484833  0.16702199    -0.01520
Zn289      Zn  0.49756583  0.55198274  0.45164147     1.49720
Zn290      Zn  0.05567641  0.95260119  0.49716872     1.49360
Zn291      Zn  0.45186170  0.99439693  0.05215746     1.49110
Zn292      Zn  0.44177959  0.93853202  0.43928431     1.49480
O293        O  0.48514413  0.98311473  0.48395863    -1.83150
O294        O  0.07353758  0.56032637  0.42222827    -0.73780
O295        O  0.06987099  0.92251016  0.07151212    -0.73600
O296        O  0.42663262  0.57171427  0.06666355    -0.73120
O297        O  0.10843152  0.01031664  0.48220693    -0.73800
O298        O  0.47122775  0.60811560  0.50159280    -0.73400
O299        O  0.49839359  0.95937951  0.10212586    -0.73980
O300        O  0.37352804  0.91811828  0.48472681    -0.73370
O301        O  0.06948684  0.88951712  0.45042343    -0.74130
O302        O  0.38761284  0.95231482  0.06391086    -0.73520
O303        O  0.48789816  0.87208342  0.42244291    -0.73990
O304        O  0.42403431  0.98248485  0.37026061    -0.73900
O305        O  0.45545561  0.56253404  0.38698529    -0.73680
C306        C  0.11385130  0.53911303  0.44175915     0.78100
C307        C  0.03938800  0.93198953  0.10986679     0.78590
C308        C  0.43918715  0.61259235  0.04037039     0.77550
C309        C  0.35857445  0.92641871  0.03269375     0.77930
C310        C  0.03628359  0.85839455  0.42867240     0.79070
C311        C  0.43193032  0.53069067  0.35621085     0.78120
Zn312      Zn  0.26857218  0.97345768  0.30286118     1.49720
Zn313      Zn  0.16495109  0.51572483  0.24860729     1.49360
Zn314      Zn  0.27891093  0.52940132  0.18980120     1.49110
Zn315      Zn  0.22423049  0.91634898  0.20097244     1.49480
O316        O  0.23507618  0.98487306  0.23430719    -1.83150
O317        O  0.22113908  0.00538648  0.35263563    -0.73780
O318        O  0.15511639  0.58158922  0.20903888    -0.73600
O319        O  0.34742144  0.54762220  0.23477316    -0.73120
O320        O  0.14749701  0.53903294  0.32479043    -0.73800
O321        O  0.33169405  0.51697298  0.31478078    -0.73400
O322        O  0.23397319  0.59702830  0.17407262    -0.73980
O323        O  0.26322138  0.90642598  0.13566396    -0.73370
O324        O  0.11155127  0.96669575  0.21941768    -0.74130
O325        O  0.29679048  0.98554356  0.11958870    -0.73520
O326        O  0.14648630  0.90039518  0.17647997    -0.73990
O327        O  0.26183574  0.86701931  0.24703998    -0.73900
O328        O  0.29304923  0.89764260  0.32164821    -0.73680
C329        C  0.17899643  0.53035967  0.36201169     0.78100
C330        C  0.18637127  0.61153240  0.18383247     0.78590
C331        C  0.36171089  0.54051320  0.28279798     0.77550
C332        C  0.28796637  0.93722378  0.10553830     0.77930
C333        C  0.10621068  0.92759442  0.18826422     0.79070
C334        C  0.28711264  0.85949073  0.28957450     0.78120
Zn335      Zn  0.19077666  0.77513558  0.03193725     1.49720
Zn336      Zn  0.30293174  0.76526251  0.47269559     1.49360
Zn337      Zn  0.24324152  0.66343098  0.02061115     1.49110
Zn338      Zn  0.20315696  0.71946947  0.41616889     1.49480
O339        O  0.23392028  0.73181596  0.48589492    -1.83150
O340        O  0.24075582  0.83836338  0.05762862    -0.73780
O341        O  0.35159417  0.72017767  0.51112372    -0.73600
O342        O  0.20273320  0.65245465  0.08486823    -0.73120
O343        O  0.31179938  0.83275453  0.00777377    -0.73800
O344        O  0.16892222  0.73100503  0.09835367    -0.73400
O345        O  0.32106957  0.64542086  0.04281206    -0.73980
O346        O  0.18556586  0.64175784  0.39784707    -0.73370
O347        O  0.32172712  0.78811563  0.39568719    -0.74130
O348        O  0.20546551  0.61290262  0.47655265    -0.73520
O349        O  0.24959758  0.75329008  0.36277958    -0.73990
O350        O  0.13568484  0.75756491  0.40977548    -0.73900
O351        O  0.12281247  0.79711647  0.48667669    -0.73680
C352        C  0.28460949  0.85809091  0.04050874     0.78100
C353        C  0.35939188  0.67791152  0.03647859     0.78590
C354        C  0.17729965  0.68373020  0.11351708     0.77550
C355        C  0.18660535  0.60480072  0.43112218     0.77930
C356        C  0.29147389  0.78085488  0.35646735     0.79070
C357        C  0.10733305  0.78588044  0.43948036     0.78120
Zn358      Zn  0.47878044  0.80212882  0.26646316     1.49720
Zn359      Zn  0.03040931  0.68922551  0.28114662     1.49360
Zn360      Zn  0.41699863  0.70319710  0.22829282     1.49110
Zn361      Zn  0.01598427  0.74072820  0.16772412     1.49480
O362        O  0.48702973  0.73231855  0.23733008    -1.83150
O363        O  0.01058937  0.81013573  0.33568504    -0.73780
O364        O  0.48191060  0.62543690  0.30695984    -0.73600
O365        O  0.37140161  0.74126436  0.28042998    -0.73120
O366        O  0.05790518  0.73814778  0.34419385    -0.73800
O367        O  0.39832413  0.82397858  0.27525105    -0.73400
O368        O  0.41015854  0.63343323  0.25846735    -0.73980
O369        O  0.47808117  0.68980571  0.12080138    -0.73370
O370        O  0.09299375  0.66222595  0.23316393    -0.74130
O371        O  0.39528712  0.69322566  0.14746024    -0.73560
O372        O  0.08476946  0.70952029  0.16110845    -0.73990
O373        O  0.02613263  0.82094232  0.14585062    -0.73900
O374        O  0.02926485  0.84846350  0.22808538    -0.73680
C375        C  0.04322680  0.78364305  0.36137580     0.78100
C376        C  0.43656678  0.60782502  0.29118198     0.78590
C377        C  0.36225283  0.78985957  0.28639857     0.77550
C378        C  0.42944172  0.68244790  0.11168154     0.77930
C379        C  0.11005151  0.67678575  0.18767143     0.79070
C380        C  0.03598776  0.85729027  0.17967011     0.78120
C381        C  0.28876846  0.99751109  0.49434088    -0.20330
C382        C  0.26738838  0.94987007  0.01400152    -0.08380
C383        C  0.21643881  0.93412614  0.99704927     0.30480
C384        C  0.19284453  0.96066027  0.45777395    -0.20330
C385        C  0.20791170  0.51269599  0.44888293    -0.08390
C386        C  0.26080761  0.52685065  0.45958749     0.30490
F387        F  0.28567937  0.56840048  0.43646690    -0.18910
H388        H  0.32735842  0.51253691  0.00494912     0.18850
H389        H  0.15711879  0.94406696  0.44105173     0.18860
F390        F  0.18483208  0.89901381  0.02177611    -0.18900
C391        C  0.00732344  0.78197069  0.00545566    -0.20330
C392        C  0.01198101  0.76881402  0.45191568    -0.08380
C393        C  0.47616802  0.73027475  0.43135057     0.30480
C394        C  0.44694517  0.69977914  0.46477204    -0.20330
C395        C  0.44883670  0.70763328  0.01930205    -0.08390
C396        C  0.47221190  0.75512078  0.03727541     0.30490
F397        F  0.45759629  0.77844855  0.08290995    -0.18910
H398        H  0.02839586  0.81550125  0.02201234     0.18850
H399        H  0.42163126  0.66939434  0.44783014     0.18860
F400        F  0.46646825  0.72150702  0.37976557    -0.18900
C401        C  0.99025724  0.53716351  0.22934362    -0.20330
C402        C  0.45067194  0.51589310  0.26229430    -0.08380
C403        C  0.43720398  0.96209850  0.25622750     0.30480
C404        C  0.46538121  0.93091534  0.22245277    -0.20330
C405        C  0.01182789  0.95018447  0.19861881    -0.08390
C406        C  0.01963325  0.00531204  0.19773898     0.30490
F407        F  0.05628518  0.52849935  0.16597846    -0.18910
H408        H  0.99981358  0.57853098  0.22664721     0.18850
H409        H  0.45010665  0.89161064  0.21548199     0.18860
F410        F  0.39517441  0.93964832  0.28094054    -0.18900
C411        C  0.18121427  0.74021955  0.23970762    -0.20330
C412        C  0.20227613  0.70561632  0.20178253    -0.08380
C413        C  0.25643249  0.71056594  0.18944684     0.30480
C414        C  0.28797505  0.74492886  0.21719723    -0.20330
C415        C  0.26875629  0.77021387  0.26253131    -0.08390
C416        C  0.21347917  0.77203168  0.26903700     0.30490
F417        F  0.19041561  0.80530673  0.30403261    -0.18910
H418        H  0.13978089  0.74417424  0.24790132     0.18850
H419        H  0.32736312  0.75123852  0.20223984     0.18860
F420        F  0.27902136  0.68439792  0.14882561    -0.18900
C421        C  0.30443491  0.80226326  0.80045829    -0.01520
C422        C  0.41930399  0.55004099  0.79977480    -0.01520
C423        C  0.05151962  0.80025528  0.91905689    -0.01520
C424        C  0.16754166  0.66769128  0.67078701    -0.01520
C425        C  0.30053087  0.91656613  0.54979717    -0.01520
C426        C  0.41715236  0.66841760  0.55399535    -0.01520
C427        C  0.17005050  0.54812389  0.91906489    -0.01520
C428        C  0.04989528  0.91484657  0.66702337    -0.01520
Zn429      Zn  0.49756300  0.55198679  0.95163825     1.49720
Zn430      Zn  0.05567661  0.95261008  0.99716755     1.49360
Zn431      Zn  0.45185806  0.99438995  0.55215660     1.49110
Zn432      Zn  0.44178120  0.93853596  0.93928557     1.49480
O433        O  0.48514353  0.98311949  0.98395843    -1.83150
O434        O  0.07353178  0.56032470  0.92221640    -0.73780
O435        O  0.06987180  0.92250826  0.57151486    -0.73600
O436        O  0.42662820  0.57170761  0.56666421    -0.73120
O437        O  0.10841819  0.01034829  0.98222506    -0.73800
O438        O  0.47122989  0.60812183  0.00159018    -0.73400
O439        O  0.49839064  0.95937376  0.60212561    -0.73980
O440        O  0.37353522  0.91812112  0.98473230    -0.73370
O441        O  0.06949038  0.88952681  0.95041590    -0.74130
O442        O  0.38760858  0.95230551  0.56390723    -0.73520
O443        O  0.48789959  0.87208946  0.92244330    -0.73990
O444        O  0.42403300  0.98248622  0.87026141    -0.73900
O445        O  0.45544890  0.56253741  0.88698554    -0.73680
C446        C  0.11384334  0.53912067  0.94176090     0.78100
C447        C  0.03938660  0.93198644  0.60986810     0.78590
C448        C  0.43918393  0.61258608  0.54037207     0.77550
C449        C  0.35856809  0.92641282  0.53268899     0.77930
C450        C  0.03628569  0.85840193  0.92866913     0.79070
C451        C  0.43192636  0.53069219  0.85621109     0.78120
Zn452      Zn  0.26856892  0.97345526  0.80286327     1.49720
Zn453      Zn  0.16494891  0.51572253  0.74860965     1.49360
Zn454      Zn  0.27890813  0.52939899  0.68980012     1.49110
Zn455      Zn  0.22422763  0.91634883  0.70097378     1.49480
O456        O  0.23507363  0.98487181  0.73430861    -1.83150
O457        O  0.22113421  0.00537626  0.85264329    -0.73780
O458        O  0.15511402  0.58158712  0.70904230    -0.73600
O459        O  0.34741872  0.54761981  0.73477225    -0.73120
O460        O  0.14749698  0.53902970  0.82479308    -0.73800
O461        O  0.33169017  0.51697368  0.81478122    -0.73400
O462        O  0.23397009  0.59702557  0.67407391    -0.73980
O463        O  0.26321718  0.90642750  0.63566509    -0.73370
O464        O  0.11154812  0.96669403  0.71942017    -0.74130
O465        O  0.29678661  0.98554295  0.61958436    -0.73520
O466        O  0.14648386  0.90039436  0.67648167    -0.73990
O467        O  0.26183346  0.86701889  0.74703987    -0.73900
O468        O  0.29304963  0.89764132  0.82164727    -0.73680
C469        C  0.17899223  0.53035174  0.86201675     0.78100
C470        C  0.18636855  0.61152990  0.68383509     0.78590
C471        C  0.36170757  0.54051250  0.78279758     0.77550
C472        C  0.28796115  0.93722279  0.60553616     0.77930
C473        C  0.10620799  0.92759302  0.68826616     0.79070
C474        C  0.28711159  0.85948983  0.78957352     0.78120
Zn475      Zn  0.19077757  0.77513231  0.53194496     1.49720
Zn476      Zn  0.30293359  0.76526701  0.97269458     1.49360
Zn477      Zn  0.24323696  0.66342938  0.52061299     1.49110
Zn478      Zn  0.20315404  0.71946940  0.91616704     1.49480
O479        O  0.23392098  0.73181789  0.98589177    -1.83150
O480        O  0.24076248  0.83835142  0.55765872    -0.73780
O481        O  0.35159526  0.72017977  0.01112022    -0.73600
O482        O  0.20273405  0.65245279  0.58487225    -0.73120
O483        O  0.31178527  0.83275089  0.50777086    -0.73800
O484        O  0.16891634  0.73099988  0.59835553    -0.73400
O485        O  0.32106669  0.64541615  0.54280905    -0.73980
O486        O  0.18555082  0.64175726  0.89785038    -0.73370
O487        O  0.32172374  0.78812003  0.89568597    -0.74130
O488        O  0.20548156  0.61289973  0.97654662    -0.73520
O489        O  0.24959819  0.75328544  0.86277683    -0.73990
O490        O  0.13568497  0.75757089  0.90977143    -0.73900
O491        O  0.12281124  0.79711876  0.98667369    -0.73680
C492        C  0.28460743  0.85808238  0.54051986     0.78100
C493        C  0.35938945  0.67790750  0.53647955     0.78590
C494        C  0.17729680  0.68372633  0.61351967     0.77550
C495        C  0.18660607  0.60479777  0.93112221     0.77930
C496        C  0.29147255  0.78085393  0.85646542     0.79070
C497        C  0.10733280  0.78588534  0.93947698     0.78120
Zn498      Zn  0.47877816  0.80212823  0.76646259     1.49720
Zn499      Zn  0.03040683  0.68922588  0.78114787     1.49360
Zn500      Zn  0.41699655  0.70319623  0.72829248     1.49110
Zn501      Zn  0.01598170  0.74072568  0.66772443     1.49480
O502        O  0.48702762  0.73231756  0.73733032    -1.83150
O503        O  0.01058753  0.81013920  0.83568346    -0.73780
O504        O  0.48190724  0.62543709  0.80696001    -0.73600
O505        O  0.37139993  0.74126359  0.78042921    -0.73120
O506        O  0.05790318  0.73815130  0.84419338    -0.73800
O507        O  0.39832221  0.82397787  0.77524949    -0.73400
O508        O  0.41015572  0.63343271  0.75846647    -0.73980
O509        O  0.47807876  0.68980034  0.62080298    -0.73370
O510        O  0.09299128  0.66222481  0.73316655    -0.74130
O511        O  0.39528462  0.69322340  0.64746055    -0.73560
O512        O  0.08476694  0.70951763  0.66111013    -0.73990
O513        O  0.02613010  0.82094050  0.64585113    -0.73900
O514        O  0.02926308  0.84846157  0.72808585    -0.73680
C515        C  0.04322593  0.78364761  0.86137396     0.78100
C516        C  0.43656372  0.60782481  0.79118140     0.78590
C517        C  0.36225108  0.78985879  0.78639715     0.77550
C518        C  0.42943921  0.68244318  0.61168271     0.77930
C519        C  0.11004899  0.67678357  0.68767377     0.79070
C520        C  0.03598551  0.85728844  0.67967077     0.78120
C521        C  0.28878655  0.99749987  0.99430140    -0.20330
C522        C  0.26738176  0.94985664  0.51399320    -0.08380
C523        C  0.21645824  0.93408730  0.49697877     0.30480
C524        C  0.19282266  0.96066870  0.95782478    -0.20330
C525        C  0.20790260  0.51269350  0.94889124    -0.08390
C526        C  0.26080982  0.52683702  0.95955859     0.30490
F527        F  0.28567582  0.56837635  0.93641359    -0.18910
H528        H  0.32732579  0.51255840  0.50502693     0.18850
H529        H  0.15708634  0.94407243  0.94112978     0.18860
F530        F  0.18486227  0.89890745  0.52162218    -0.18900
C531        C  0.00732344  0.78196289  0.50545744    -0.20330
C532        C  0.01198071  0.76882163  0.95191386    -0.08380
C533        C  0.47616711  0.73028257  0.93134924     0.30480
C534        C  0.44694613  0.69978587  0.96477100    -0.20330
C535        C  0.44883504  0.70762678  0.51930315    -0.08390
C536        C  0.47221092  0.75511392  0.53727660     0.30490
F537        F  0.45759510  0.77844250  0.58291066    -0.18910
H538        H  0.02839602  0.81549314  0.52201452     0.18850
H539        H  0.42163241  0.66940082  0.94782926     0.18860
F540        F  0.46646482  0.72151599  0.87976450    -0.18900
C541        C  0.99025436  0.53716253  0.72934347    -0.20330
C542        C  0.45066933  0.51589247  0.76229481    -0.08380
C543        C  0.43720198  0.96209765  0.75622915     0.30480
C544        C  0.46537920  0.93091397  0.72245474    -0.20330
C545        C  0.01182515  0.95018307  0.69861943    -0.08390
C546        C  0.01963025  0.00531064  0.69773878     0.30490
F547        F  0.05628220  0.52849744  0.66597799    -0.18910
H548        H  0.99981054  0.57852998  0.72664670     0.18850
H549        H  0.45010500  0.89160906  0.71548499     0.18860
F550        F  0.39517280  0.93964770  0.78094303    -0.18900
C551        C  0.18121242  0.74021832  0.73970803    -0.20330
C552        C  0.20227400  0.70561399  0.70178382    -0.08380
C553        C  0.25643041  0.71056336  0.68944753     0.30480
C554        C  0.28797305  0.74492735  0.71719641    -0.20330
C555        C  0.26875456  0.77021338  0.76252982    -0.08390
C556        C  0.21347756  0.77203129  0.76903616     0.30490
F557        F  0.19041458  0.80530627  0.80403223    -0.18910
H558        H  0.13977915  0.74417299  0.74790222     0.18850
H559        H  0.32736113  0.75123653  0.70223882     0.18860
F560        F  0.27901942  0.68439400  0.64882729    -0.18900
C561        C  0.80443933  0.30227141  0.30045698    -0.01520
C562        C  0.91935473  0.05004349  0.29977679    -0.01520
C563        C  0.55150599  0.30025715  0.41904369    -0.01520
C564        C  0.66755682  0.16770116  0.17077469    -0.01520
C565        C  0.80051173  0.41659355  0.04980068    -0.01520
C566        C  0.91716783  0.16840534  0.05398592    -0.01520
C567        C  0.67013642  0.04815234  0.41904861    -0.01520
C568        C  0.54985699  0.41485342  0.16700928    -0.01520
Zn569      Zn  0.99763061  0.05197873  0.45165422     1.49720
Zn570      Zn  0.55562383  0.45262571  0.49715917     1.49360
Zn571      Zn  0.95182339  0.49441710  0.05215692     1.49110
Zn572      Zn  0.94174132  0.43852781  0.43928215     1.49480
O573        O  0.98508776  0.48311949  0.48395304    -1.83150
O574        O  0.57361790  0.06034625  0.42228165    -0.73780
O575        O  0.56981302  0.42251281  0.07149535    -0.73600
O576        O  0.92665474  0.07169423  0.06666011    -0.73120
O577        O  0.60831915  0.51043761  0.48227963    -0.73800
O578        O  0.97125892  0.10810137  0.50159857    -0.73400
O579        O  0.99835010  0.45939567  0.10212282    -0.73980
O580        O  0.87350728  0.41812035  0.48474476    -0.73370
O581        O  0.56946227  0.38954282  0.45039408    -0.74130
O582        O  0.88757460  0.45235244  0.06391937    -0.73520
O583        O  0.98786934  0.37208126  0.42244297    -0.73990
O584        O  0.92399501  0.48247898  0.37025498    -0.73900
O585        O  0.95553711  0.06252603  0.38697838    -0.73680
C586        C  0.61394057  0.03909264  0.44175451     0.78100
C587        C  0.53933996  0.43199746  0.10985600     0.78590
C588        C  0.93920769  0.11257426  0.04036806     0.77550
C589        C  0.85854763  0.42643865  0.03270774     0.77930
C590        C  0.53626054  0.35840450  0.42865931     0.79070
C591        C  0.93198627  0.03069230  0.35621190     0.78120
Zn592      Zn  0.76852244  0.47345171  0.30287254     1.49720
Zn593      Zn  0.66499113  0.01573067  0.24860400     1.49360
Zn594      Zn  0.77895202  0.02941549  0.18979190     1.49110
Zn595      Zn  0.72419139  0.41633529  0.20097186     1.49480
O596        O  0.73503135  0.48486106  0.23431452    -1.83150
O597        O  0.72107257  0.50534736  0.35266408    -0.73780
O598        O  0.65513643  0.08158698  0.20901863    -0.73600
O599        O  0.84746531  0.04763147  0.23477433    -0.73120
O600        O  0.64755222  0.03906186  0.32478279    -0.73800
O601        O  0.83174773  0.01696112  0.31477554    -0.73400
O602        O  0.73399880  0.09704227  0.17406965    -0.73980
O603        O  0.76317893  0.40641012  0.13565499    -0.73370
O604        O  0.61151919  0.46671314  0.21938080    -0.74130
O605        O  0.79675410  0.48553259  0.11960644    -0.73520
O606        O  0.64644136  0.40037869  0.17648675    -0.73990
O607        O  0.76181966  0.36701659  0.24703700    -0.73900
O608        O  0.79302890  0.39764524  0.32164541    -0.73680
C609        C  0.67906630  0.03039944  0.36199361     0.78100
C610        C  0.68639127  0.11153828  0.18382069     0.78590
C611        C  0.86175896  0.04051269  0.28279752     0.77550
C612        C  0.78793265  0.43721641  0.10554411     0.77930
C613        C  0.60617186  0.42759824  0.18824687     0.79070
C614        C  0.78710395  0.35949411  0.28956906     0.78120
Zn615      Zn  0.69075536  0.27513834  0.03190213     1.49720
Zn616      Zn  0.80295207  0.26527200  0.47269764     1.49360
Zn617      Zn  0.74324786  0.16345198  0.02060938     1.49110
Zn618      Zn  0.70316662  0.21949139  0.41616189     1.49480
O619        O  0.73392901  0.23183264  0.48588481    -1.83150
O620        O  0.74069321  0.33839947  0.05750273    -0.73780
O621        O  0.85160969  0.22016572  0.51111307    -0.73600
O622        O  0.70274273  0.15246902  0.08485967    -0.73120
O623        O  0.81183879  0.33275642  0.00780253    -0.73800
O624        O  0.66892949  0.23101843  0.09834367    -0.73400
O625        O  0.82107497  0.14541788  0.04280882    -0.73980
O626        O  0.68563562  0.14177689  0.39782963    -0.73370
O627        O  0.82174471  0.28812793  0.39568449    -0.74130
O628        O  0.70546088  0.11293540  0.47656094    -0.73520
O629        O  0.74960535  0.25331544  0.36278713    -0.73990
O630        O  0.63567880  0.25757648  0.40975626    -0.73900
O631        O  0.62279274  0.29711469  0.48665881    -0.73680
C632        C  0.78458290  0.35811422  0.04046637     0.78100
C633        C  0.85940414  0.17789853  0.03646794     0.78590
C634        C  0.67731024  0.18374349  0.11350862     0.77550
C635        C  0.68664964  0.10482716  0.43111360     0.77930
C636        C  0.79148478  0.28087060  0.35646824     0.79070
C637        C  0.60732027  0.28588751  0.43946093     0.78120
Zn638      Zn  0.97877150  0.30212892  0.26644985     1.49720
Zn639      Zn  0.53042453  0.18923584  0.28113245     1.49360
Zn640      Zn  0.91700560  0.20319425  0.22828746     1.49110
Zn641      Zn  0.51598764  0.24072797  0.16771351     1.49480
O642        O  0.98703261  0.23231956  0.23731791    -1.83150
O643        O  0.51056991  0.31013789  0.33567319    -0.73780
O644        O  0.98194661  0.12544572  0.30695671    -0.73600
O645        O  0.87140369  0.24126883  0.28042243    -0.73120
O646        O  0.55791101  0.23816545  0.34417403    -0.73800
O647        O  0.89832184  0.32398338  0.27523680    -0.73400
O648        O  0.91018851  0.13343335  0.25847144    -0.73980
O649        O  0.97809130  0.18980014  0.12079259    -0.73370
O650        O  0.59300577  0.16222793  0.23315164    -0.74130
O651        O  0.89529685  0.19320859  0.14745300    -0.73560
O652        O  0.58478011  0.20952688  0.16109985    -0.73990
O653        O  0.52611057  0.32094379  0.14583820    -0.73900
O654        O  0.52924475  0.34846691  0.22807278    -0.73680
C655        C  0.54321616  0.28365337  0.36136051     0.78100
C656        C  0.93660525  0.10782789  0.29118178     0.78590
C657        C  0.86225400  0.28986493  0.28639102     0.77550
C658        C  0.92945272  0.18243461  0.11167367     0.77930
C659        C  0.61006293  0.17678977  0.18766011     0.79070
C660        C  0.53595739  0.35729470  0.17965682     0.78120
C661        C  0.78877792  0.49745063  0.49418214    -0.20330
C662        C  0.76735634  0.44990470  0.01402897    -0.08380
C663        C  0.71630578  0.43425671  0.99732037     0.30480
C664        C  0.69269206  0.46067657  0.45797461    -0.20330
C665        C  0.70800930  0.01272350  0.44885243    -0.08390
C666        C  0.76086063  0.02692407  0.45970633     0.30490
F667        F  0.78575450  0.06851599  0.43668283    -0.18910
H668        H  0.82729972  0.01263483  0.00525886     0.18850
H669        H  0.65693035  0.44407743  0.44136518     0.18860
F670        F  0.68466578  0.39939529  0.02236244    -0.18900
C671        C  0.50731153  0.28197078  0.00543905    -0.20330
C672        C  0.51197442  0.26881246  0.45190000    -0.08380
C673        C  0.97617832  0.23025595  0.43133786     0.30480
C674        C  0.94696340  0.19975433  0.46476189    -0.20330
C675        C  0.94884956  0.20761445  0.01929172    -0.08390
C676        C  0.97221021  0.25511041  0.03726125     0.30490
F677        F  0.95758744  0.27843665  0.08289413    -0.18910
H678        H  0.52837269  0.31550933  0.02199375     0.18850
H679        H  0.92165835  0.16936095  0.44782198     0.18860
F680        F  0.96648886  0.22147514  0.37975310    -0.18900
C681        C  0.49030639  0.03716479  0.22934844    -0.20330
C682        C  0.95071836  0.01589615  0.26229673    -0.08380
C683        C  0.93716079  0.46209498  0.25622462     0.30480
C684        C  0.96534407  0.43091157  0.22245275    -0.20330
C685        C  0.51178738  0.45018499  0.19861420    -0.08390
C686        C  0.51958611  0.50531337  0.19773392     0.30490
F687        F  0.55634146  0.02849274  0.16599019    -0.18910
H688        H  0.49986730  0.07853178  0.22665619     0.18850
H689        H  0.95007486  0.39160500  0.21548335     0.18860
F690        F  0.89512814  0.43964577  0.28093342    -0.18900
C691        C  0.68122036  0.24021700  0.23970737    -0.20330
C692        C  0.70228452  0.20562258  0.20177572    -0.08380
C693        C  0.75643964  0.21057883  0.18943864     0.30480
C694        C  0.78797903  0.24494036  0.21719257    -0.20330
C695        C  0.76876001  0.27021480  0.26253302    -0.08390
C696        C  0.71348275  0.27202610  0.26904128     0.30490
F697        F  0.69041545  0.30529900  0.30403655    -0.18910
H698        H  0.63978702  0.24416883  0.24790189     0.18850
H699        H  0.82736527  0.25125719  0.20223241     0.18860
F700        F  0.77902995  0.18441941  0.14881255    -0.18900
C701        C  0.80443778  0.30227050  0.80045530    -0.01520
C702        C  0.91935148  0.05004337  0.79977656    -0.01520
C703        C  0.55150632  0.30026352  0.91904106    -0.01520
C704        C  0.66755419  0.16769826  0.67077713    -0.01520
C705        C  0.80050528  0.41658606  0.54979931    -0.01520
C706        C  0.91716520  0.16839967  0.55398723    -0.01520
C707        C  0.67013068  0.04814905  0.91905192    -0.01520
C708        C  0.54985462  0.41485165  0.66701069    -0.01520
Zn709      Zn  0.99762781  0.05198275  0.95165105     1.49720
Zn710      Zn  0.55562401  0.45263461  0.99715795     1.49360
Zn711      Zn  0.95181969  0.49441005  0.55215608     1.49110
Zn712      Zn  0.94174294  0.43853176  0.93928337     1.49480
O713        O  0.98508715  0.48312427  0.98395279    -1.83150
O714        O  0.57361215  0.06034453  0.92226985    -0.73780
O715        O  0.56981383  0.42251087  0.57149813    -0.73600
O716        O  0.92665037  0.07168761  0.56666077    -0.73120
O717        O  0.60830560  0.51046938  0.98229766    -0.73800
O718        O  0.97126109  0.10810757  0.00159601    -0.73400
O719        O  0.99834712  0.45938986  0.60212258    -0.73980
O720        O  0.87351454  0.41812315  0.98475024    -0.73370
O721        O  0.56946575  0.38955248  0.95038651    -0.74130
O722        O  0.88757028  0.45234301  0.56391580    -0.73520
O723        O  0.98787072  0.37208729  0.92244329    -0.73990
O724        O  0.92399366  0.48248036  0.87025576    -0.73900
O725        O  0.95553046  0.06252938  0.88697866    -0.73680
C726        C  0.61393270  0.03910026  0.94175631     0.78100
C727        C  0.53933853  0.43199435  0.60985734     0.78590
C728        C  0.93920449  0.11256803  0.54036970     0.77550
C729        C  0.85854119  0.42643271  0.53270299     0.77930
C730        C  0.53626259  0.35841186  0.92865600     0.79070
C731        C  0.93198236  0.03069380  0.85621217     0.78120
Zn732      Zn  0.76851913  0.47344930  0.80287464     1.49720
Zn733      Zn  0.66498899  0.01572834  0.74860635     1.49360
Zn734      Zn  0.77894929  0.02941316  0.68979084     1.49110
Zn735      Zn  0.72418847  0.41633513  0.70097323     1.49480
O736        O  0.73502874  0.48485983  0.73431594    -1.83150
O737        O  0.72106764  0.50533707  0.85267180    -0.73780
O738        O  0.65513409  0.08158485  0.70902206    -0.73600
O739        O  0.84746264  0.04762909  0.73477344    -0.73120
O740        O  0.64755220  0.03905859  0.82478542    -0.73800
O741        O  0.83174391  0.01696178  0.81477598    -0.73400
O742        O  0.73399574  0.09703954  0.67407097    -0.73980
O743        O  0.76317463  0.40641161  0.63565613    -0.73370
O744        O  0.61151600  0.46671145  0.71938331    -0.74130
O745        O  0.79675013  0.48553195  0.61960209    -0.73520
O746        O  0.64643888  0.40037786  0.67648850    -0.73990
O747        O  0.76181733  0.36701617  0.74703691    -0.73900
O748        O  0.79302929  0.39764398  0.82164446    -0.73680
C749        C  0.67906214  0.03039153  0.86199863     0.78100
C750        C  0.68638857  0.11153577  0.68382332     0.78590
C751        C  0.86175570  0.04051196  0.78279714     0.77550
C752        C  0.78792731  0.43721539  0.60554197     0.77930
C753        C  0.60616913  0.42759685  0.68824886     0.79070
C754        C  0.78710287  0.35949323  0.78956809     0.78120
Zn755      Zn  0.69075636  0.27513496  0.53190988     1.49720
Zn756      Zn  0.80295393  0.26527652  0.97269673     1.49360
Zn757      Zn  0.74324333  0.16345033  0.52061120     1.49110
Zn758      Zn  0.70316371  0.21949136  0.91616005     1.49480
O759        O  0.73392969  0.23183464  0.98588170    -1.83150
O760        O  0.74070015  0.33838713  0.55753324    -0.73780
O761        O  0.85161075  0.22016775  0.01110953    -0.73600
O762        O  0.70274367  0.15246712  0.58486371    -0.73120
O763        O  0.81182446  0.33275294  0.50779916    -0.73800
O764        O  0.66892356  0.23101318  0.59834548    -0.73400
O765        O  0.82107213  0.14541316  0.54280571    -0.73980
O766        O  0.68562059  0.14177635  0.89783289    -0.73370
O767        O  0.82174125  0.28813250  0.89568335    -0.74130
O768        O  0.70547700  0.11293254  0.97655488    -0.73520
O769        O  0.74960599  0.25331076  0.86278441    -0.73990
O770        O  0.63567892  0.25758251  0.90975215    -0.73900
O771        O  0.62279137  0.29711686  0.98665581    -0.73680
C772        C  0.78458084  0.35810560  0.54047745     0.78100
C773        C  0.85940173  0.17789455  0.53646889     0.78590
C774        C  0.67730740  0.18373954  0.61351121     0.77550
C775        C  0.68665041  0.10482424  0.93111359     0.77930
C776        C  0.79148343  0.28086970  0.85646636     0.79070
C777        C  0.60731994  0.28589236  0.93945750     0.78120
Zn778      Zn  0.97876918  0.30212830  0.76644927     1.49720
Zn779      Zn  0.53042205  0.18923619  0.78113368     1.49360
Zn780      Zn  0.91700351  0.20319336  0.72828714     1.49110
Zn781      Zn  0.51598508  0.24072543  0.66771384     1.49480
O782        O  0.98703049  0.23231856  0.73731816    -1.83150
O783        O  0.51056800  0.31014130  0.83567160    -0.73780
O784        O  0.98194328  0.12544590  0.80695691    -0.73600
O785        O  0.87140197  0.24126806  0.78042167    -0.73120
O786        O  0.55790901  0.23816896  0.84417353    -0.73800
O787        O  0.89831989  0.32398267  0.77523524    -0.73400
O788        O  0.91018571  0.13343281  0.75847058    -0.73980
O789        O  0.97808889  0.18979476  0.62079420    -0.73370
O790        O  0.59300330  0.16222674  0.73315424    -0.74130
O791        O  0.89529435  0.19320632  0.64745331    -0.73560
O792        O  0.58477761  0.20952420  0.66110154    -0.73990
O793        O  0.52610805  0.32094196  0.64583874    -0.73900
O794        O  0.52924295  0.34846497  0.72807327    -0.73680
C795        C  0.54321524  0.28365790  0.86135864     0.78100
C796        C  0.93660221  0.10782767  0.79118121     0.78590
C797        C  0.86225222  0.28986415  0.78638961     0.77550
C798        C  0.92945023  0.18242990  0.61167483     0.77930
C799        C  0.61006041  0.17678754  0.68766245     0.79070
C800        C  0.53595511  0.35729286  0.67965752     0.78120
C801        C  0.78879591  0.49743923  0.99414255    -0.20330
C802        C  0.76734958  0.44989127  0.51402070    -0.08380
C803        C  0.71632476  0.43421765  0.49724978     0.30480
C804        C  0.69267011  0.46068524  0.95802598    -0.20330
C805        C  0.70800028  0.01272100  0.94886060    -0.08390
C806        C  0.76086298  0.02691055  0.95967741     0.30490
F807        F  0.78575114  0.06849206  0.93662960    -0.18910
H808        H  0.82726688  0.01265600  0.50533639     0.18850
H809        H  0.65689797  0.44408311  0.94144392     0.18860
F810        F  0.68469426  0.39928931  0.52220941    -0.18900
C811        C  0.50731161  0.28196298  0.50544087    -0.20330
C812        C  0.51197406  0.26882005  0.95189815    -0.08380
C813        C  0.97617739  0.23026370  0.93133651     0.30480
C814        C  0.94696436  0.19976100  0.96476084    -0.20330
C815        C  0.94884792  0.20760799  0.51929283    -0.08390
C816        C  0.97220929  0.25510356  0.53726246     0.30490
F817        F  0.95758630  0.27843062  0.58289486    -0.18910
H818        H  0.52837295  0.31550121  0.52199598     0.18850
H819        H  0.92165951  0.16936733  0.94782110     0.18860
F820        F  0.96648546  0.22148399  0.87975201    -0.18900
C821        C  0.49030358  0.03716381  0.72934833    -0.20330
C822        C  0.95071581  0.01589551  0.76229726    -0.08380
C823        C  0.93715872  0.46209413  0.75622627     0.30480
C824        C  0.96534202  0.43091019  0.72245474    -0.20330
C825        C  0.51178459  0.45018357  0.69861484    -0.08390
C826        C  0.51958305  0.50531196  0.69773371     0.30490
F827        F  0.55633853  0.02849085  0.66598975    -0.18910
H828        H  0.49986433  0.07853078  0.72665574     0.18850
H829        H  0.95007318  0.39160340  0.71548639     0.18860
F830        F  0.89512647  0.43964516  0.78093590    -0.18900
C831        C  0.68121850  0.24021574  0.73970780    -0.20330
C832        C  0.70228240  0.20562024  0.70177701    -0.08380
C833        C  0.75643755  0.21057628  0.68943932     0.30480
C834        C  0.78797702  0.24493888  0.71719175    -0.20330
C835        C  0.76875826  0.27021432  0.76253155    -0.08390
C836        C  0.71348112  0.27202569  0.76904047     0.30490
F837        F  0.69041438  0.30529849  0.80403622    -0.18910
H838        H  0.63978527  0.24416753  0.74790282     0.18850
H839        H  0.82736326  0.25125527  0.70223139     0.18860
F840        F  0.77902802  0.18441554  0.64881422    -0.18900
C841        C  0.80443644  0.80226419  0.30045999    -0.01520
C842        C  0.91930728  0.55004109  0.29977505    -0.01520
C843        C  0.55151923  0.80024887  0.41905948    -0.01520
C844        C  0.66754431  0.66769414  0.17078457    -0.01520
C845        C  0.80053720  0.91657358  0.04979855    -0.01520
C846        C  0.91715500  0.66842329  0.05399405    -0.01520
C847        C  0.67005632  0.54812721  0.41906152    -0.01520
C848        C  0.54989762  0.91484833  0.16702199    -0.01520
Zn849      Zn  0.99756583  0.55198274  0.45164147     1.49720
Zn850      Zn  0.55567641  0.95260119  0.49716872     1.49360
Zn851      Zn  0.95186170  0.99439693  0.05215746     1.49110
Zn852      Zn  0.94177959  0.93853202  0.43928431     1.49480
O853        O  0.98514413  0.98311473  0.48395863    -1.83150
O854        O  0.57353758  0.56032637  0.42222828    -0.73780
O855        O  0.56987099  0.92251016  0.07151212    -0.73600
O856        O  0.92663262  0.57171427  0.06666355    -0.73120
O857        O  0.60843153  0.01031663  0.48220693    -0.73800
O858        O  0.97122775  0.60811560  0.50159280    -0.73400
O859        O  0.99839359  0.95937951  0.10212586    -0.73980
O860        O  0.87352804  0.91811828  0.48472681    -0.73370
O861        O  0.56948684  0.88951712  0.45042343    -0.74130
O862        O  0.88761284  0.95231482  0.06391086    -0.73520
O863        O  0.98789816  0.87208342  0.42244291    -0.73990
O864        O  0.92403431  0.98248485  0.37026061    -0.73900
O865        O  0.95545560  0.56253404  0.38698529    -0.73680
C866        C  0.61385131  0.53911303  0.44175915     0.78100
C867        C  0.53938800  0.93198953  0.10986679     0.78590
C868        C  0.93918714  0.61259235  0.04037039     0.77550
C869        C  0.85857445  0.92641871  0.03269375     0.77930
C870        C  0.53628359  0.85839455  0.42867240     0.79070
C871        C  0.93193032  0.53069067  0.35621085     0.78120
Zn872      Zn  0.76857218  0.97345768  0.30286118     1.49720
Zn873      Zn  0.66495109  0.51572483  0.24860729     1.49360
Zn874      Zn  0.77891093  0.52940132  0.18980120     1.49110
Zn875      Zn  0.72423049  0.91634898  0.20097244     1.49480
O876        O  0.73507618  0.98487306  0.23430719    -1.83150
O877        O  0.72113908  0.00538649  0.35263563    -0.73780
O878        O  0.65511639  0.58158922  0.20903888    -0.73600
O879        O  0.84742144  0.54762220  0.23477316    -0.73120
O880        O  0.64749701  0.53903294  0.32479043    -0.73800
O881        O  0.83169405  0.51697298  0.31478078    -0.73400
O882        O  0.73397319  0.59702830  0.17407262    -0.73980
O883        O  0.76322138  0.90642599  0.13566396    -0.73370
O884        O  0.61155127  0.96669575  0.21941768    -0.74130
O885        O  0.79679048  0.98554356  0.11958869    -0.73520
O886        O  0.64648630  0.90039518  0.17647997    -0.73990
O887        O  0.76183574  0.86701931  0.24703998    -0.73900
O888        O  0.79304923  0.89764260  0.32164821    -0.73680
C889        C  0.67899643  0.53035967  0.36201169     0.78100
C890        C  0.68637127  0.61153240  0.18383247     0.78590
C891        C  0.86171089  0.54051320  0.28279798     0.77550
C892        C  0.78796637  0.93722378  0.10553829     0.77930
C893        C  0.60621068  0.92759442  0.18826422     0.79070
C894        C  0.78711264  0.85949073  0.28957450     0.78120
Zn895      Zn  0.69077666  0.77513558  0.03193725     1.49720
Zn896      Zn  0.80293174  0.76526252  0.47269559     1.49360
Zn897      Zn  0.74324152  0.66343098  0.02061115     1.49110
Zn898      Zn  0.70315696  0.71946947  0.41616889     1.49480
O899        O  0.73392028  0.73181596  0.48589492    -1.83150
O900        O  0.74075582  0.83836338  0.05762863    -0.73780
O901        O  0.85159417  0.72017767  0.51112372    -0.73600
O902        O  0.70273320  0.65245465  0.08486824    -0.73120
O903        O  0.81179938  0.83275453  0.00777377    -0.73800
O904        O  0.66892222  0.73100503  0.09835368    -0.73400
O905        O  0.82106957  0.64542086  0.04281206    -0.73980
O906        O  0.68556587  0.64175784  0.39784707    -0.73370
O907        O  0.82172713  0.78811563  0.39568719    -0.74130
O908        O  0.70546550  0.61290262  0.47655265    -0.73520
O909        O  0.74959758  0.75329009  0.36277958    -0.73990
O910        O  0.63568484  0.75756491  0.40977548    -0.73900
O911        O  0.62281247  0.79711647  0.48667669    -0.73680
C912        C  0.78460949  0.85809091  0.04050874     0.78100
C913        C  0.85939188  0.67791152  0.03647859     0.78590
C914        C  0.67729965  0.68373021  0.11351708     0.77550
C915        C  0.68660535  0.60480073  0.43112218     0.77930
C916        C  0.79147389  0.78085488  0.35646735     0.79070
C917        C  0.60733305  0.78588044  0.43948036     0.78120
Zn918      Zn  0.97878044  0.80212882  0.26646316     1.49720
Zn919      Zn  0.53040931  0.68922551  0.28114662     1.49360
Zn920      Zn  0.91699863  0.70319710  0.22829282     1.49110
Zn921      Zn  0.51598427  0.74072820  0.16772412     1.49480
O922        O  0.98702973  0.73231855  0.23733008    -1.83150
O923        O  0.51058937  0.81013573  0.33568504    -0.73780
O924        O  0.98191060  0.62543690  0.30695983    -0.73600
O925        O  0.87140161  0.74126436  0.28042998    -0.73120
O926        O  0.55790518  0.73814778  0.34419385    -0.73800
O927        O  0.89832413  0.82397858  0.27525105    -0.73400
O928        O  0.91015854  0.63343323  0.25846735    -0.73980
O929        O  0.97808117  0.68980571  0.12080138    -0.73370
O930        O  0.59299375  0.66222595  0.23316393    -0.74130
O931        O  0.89528712  0.69322566  0.14746024    -0.73560
O932        O  0.58476946  0.70952029  0.16110845    -0.73990
O933        O  0.52613263  0.82094232  0.14585062    -0.73900
O934        O  0.52926485  0.84846350  0.22808538    -0.73680
C935        C  0.54322680  0.78364305  0.36137580     0.78100
C936        C  0.93656679  0.60782502  0.29118198     0.78590
C937        C  0.86225283  0.78985957  0.28639857     0.77550
C938        C  0.92944172  0.68244790  0.11168154     0.77930
C939        C  0.61005151  0.67678575  0.18767143     0.79070
C940        C  0.53598776  0.85729027  0.17967011     0.78120
C941        C  0.78876845  0.99751110  0.49434089    -0.20330
C942        C  0.76738837  0.94987007  0.01400151    -0.08380
C943        C  0.71643881  0.93412613  0.99704926     0.30480
C944        C  0.69284453  0.96066027  0.45777394    -0.20330
C945        C  0.70791171  0.51269599  0.44888292    -0.08390
C946        C  0.76080761  0.52685065  0.45958750     0.30490
F947        F  0.78567937  0.56840049  0.43646692    -0.18910
H948        H  0.82735841  0.51253691  0.00494913     0.18850
H949        H  0.65711879  0.94406696  0.44105171     0.18860
F950        F  0.68483208  0.89901380  0.02177608    -0.18900
C951        C  0.50732344  0.78197069  0.00545566    -0.20330
C952        C  0.51198102  0.76881402  0.45191568    -0.08380
C953        C  0.97616802  0.73027475  0.43135057     0.30480
C954        C  0.94694516  0.69977914  0.46477204    -0.20330
C955        C  0.94883670  0.70763328  0.01930205    -0.08390
C956        C  0.97221190  0.75512078  0.03727541     0.30490
F957        F  0.95759629  0.77844854  0.08290995    -0.18910
H958        H  0.52839586  0.81550125  0.02201234     0.18850
H959        H  0.92163125  0.66939434  0.44783014     0.18860
F960        F  0.96646825  0.72150702  0.37976557    -0.18900
C961        C  0.49025724  0.53716351  0.22934362    -0.20330
C962        C  0.95067194  0.51589310  0.26229430    -0.08380
C963        C  0.93720398  0.96209850  0.25622750     0.30480
C964        C  0.96538122  0.93091534  0.22245277    -0.20330
C965        C  0.51182789  0.95018447  0.19861881    -0.08390
C966        C  0.51963325  0.00531204  0.19773898     0.30490
F967        F  0.55628518  0.52849935  0.16597846    -0.18910
H968        H  0.49981358  0.57853098  0.22664721     0.18850
H969        H  0.95010665  0.89161064  0.21548199     0.18860
F970        F  0.89517441  0.93964832  0.28094054    -0.18900
C971        C  0.68121427  0.74021955  0.23970762    -0.20330
C972        C  0.70227613  0.70561632  0.20178253    -0.08380
C973        C  0.75643249  0.71056594  0.18944684     0.30480
C974        C  0.78797505  0.74492886  0.21719723    -0.20330
C975        C  0.76875629  0.77021387  0.26253131    -0.08390
C976        C  0.71347917  0.77203168  0.26903700     0.30490
F977        F  0.69041561  0.80530673  0.30403261    -0.18910
H978        H  0.63978089  0.74417424  0.24790132     0.18850
H979        H  0.82736312  0.75123852  0.20223984     0.18860
F980        F  0.77902136  0.68439792  0.14882561    -0.18900
C981        C  0.80443491  0.80226327  0.80045829    -0.01520
C982        C  0.91930399  0.55004099  0.79977480    -0.01520
C983        C  0.55151962  0.80025528  0.91905689    -0.01520
C984        C  0.66754166  0.66769128  0.67078701    -0.01520
C985        C  0.80053087  0.91656613  0.54979717    -0.01520
C986        C  0.91715236  0.66841759  0.55399535    -0.01520
C987        C  0.67005051  0.54812389  0.91906488    -0.01520
C988        C  0.54989528  0.91484657  0.66702337    -0.01520
Zn989      Zn  0.99756300  0.55198679  0.95163825     1.49720
Zn990      Zn  0.55567661  0.95261008  0.99716755     1.49360
Zn991      Zn  0.95185806  0.99438995  0.55215660     1.49110
Zn992      Zn  0.94178120  0.93853596  0.93928557     1.49480
O993        O  0.98514353  0.98311949  0.98395842    -1.83150
O994        O  0.57353178  0.56032471  0.92221640    -0.73780
O995        O  0.56987180  0.92250826  0.57151486    -0.73600
O996        O  0.92662820  0.57170761  0.56666421    -0.73120
O997        O  0.60841819  0.01034829  0.98222506    -0.73800
O998        O  0.97122989  0.60812183  0.00159018    -0.73400
O999        O  0.99839064  0.95937376  0.60212561    -0.73980
O1000       O  0.87353521  0.91812112  0.98473229    -0.73370
O1001       O  0.56949038  0.88952681  0.95041590    -0.74130
O1002       O  0.88760858  0.95230551  0.56390722    -0.73520
O1003       O  0.98789959  0.87208946  0.92244329    -0.73990
O1004       O  0.92403300  0.98248622  0.87026140    -0.73900
O1005       O  0.95544890  0.56253741  0.88698554    -0.73680
C1006       C  0.61384334  0.53912067  0.94176090     0.78100
C1007       C  0.53938660  0.93198644  0.60986810     0.78590
C1008       C  0.93918393  0.61258608  0.54037207     0.77550
C1009       C  0.85856808  0.92641282  0.53268899     0.77930
C1010       C  0.53628569  0.85840193  0.92866913     0.79070
C1011       C  0.93192636  0.53069219  0.85621109     0.78120
Zn1012     Zn  0.76856892  0.97345526  0.80286327     1.49720
Zn1013     Zn  0.66494891  0.51572253  0.74860965     1.49360
Zn1014     Zn  0.77890813  0.52939899  0.68980011     1.49110
Zn1015     Zn  0.72422763  0.91634883  0.70097378     1.49480
O1016       O  0.73507363  0.98487181  0.73430861    -1.83150
O1017       O  0.72113421  0.00537626  0.85264329    -0.73780
O1018       O  0.65511402  0.58158712  0.70904230    -0.73600
O1019       O  0.84741872  0.54761981  0.73477224    -0.73120
O1020       O  0.64749698  0.53902971  0.82479308    -0.73800
O1021       O  0.83169017  0.51697368  0.81478122    -0.73400
O1022       O  0.73397009  0.59702557  0.67407391    -0.73980
O1023       O  0.76321718  0.90642750  0.63566509    -0.73370
O1024       O  0.61154812  0.96669404  0.71942017    -0.74130
O1025       O  0.79678661  0.98554295  0.61958436    -0.73520
O1026       O  0.64648386  0.90039436  0.67648167    -0.73990
O1027       O  0.76183346  0.86701889  0.74703988    -0.73900
O1028       O  0.79304963  0.89764132  0.82164727    -0.73680
C1029       C  0.67899223  0.53035174  0.86201675     0.78100
C1030       C  0.68636855  0.61152990  0.68383509     0.78590
C1031       C  0.86170757  0.54051250  0.78279758     0.77550
C1032       C  0.78796115  0.93722279  0.60553616     0.77930
C1033       C  0.60620800  0.92759302  0.68826616     0.79070
C1034       C  0.78711159  0.85948984  0.78957352     0.78120
Zn1035     Zn  0.69077757  0.77513231  0.53194496     1.49720
Zn1036     Zn  0.80293359  0.76526701  0.97269458     1.49360
Zn1037     Zn  0.74323695  0.66342938  0.52061299     1.49110
Zn1038     Zn  0.70315404  0.71946941  0.91616704     1.49480
O1039       O  0.73392098  0.73181789  0.98589177    -1.83150
O1040       O  0.74076248  0.83835142  0.55765873    -0.73780
O1041       O  0.85159526  0.72017977  0.01112022    -0.73600
O1042       O  0.70273405  0.65245280  0.58487225    -0.73120
O1043       O  0.81178527  0.83275089  0.50777086    -0.73800
O1044       O  0.66891634  0.73099989  0.59835553    -0.73400
O1045       O  0.82106669  0.64541615  0.54280905    -0.73980
O1046       O  0.68555082  0.64175726  0.89785038    -0.73370
O1047       O  0.82172374  0.78812003  0.89568597    -0.74130
O1048       O  0.70548156  0.61289973  0.97654663    -0.73520
O1049       O  0.74959819  0.75328544  0.86277683    -0.73990
O1050       O  0.63568497  0.75757089  0.90977143    -0.73900
O1051       O  0.62281124  0.79711876  0.98667370    -0.73680
C1052       C  0.78460743  0.85808238  0.54051987     0.78100
C1053       C  0.85938945  0.67790750  0.53647955     0.78590
C1054       C  0.67729679  0.68372633  0.61351967     0.77550
C1055       C  0.68660607  0.60479778  0.93112221     0.77930
C1056       C  0.79147255  0.78085393  0.85646543     0.79070
C1057       C  0.60733280  0.78588534  0.93947698     0.78120
Zn1058     Zn  0.97877816  0.80212823  0.76646259     1.49720
Zn1059     Zn  0.53040683  0.68922588  0.78114787     1.49360
Zn1060     Zn  0.91699655  0.70319623  0.72829248     1.49110
Zn1061     Zn  0.51598170  0.74072568  0.66772443     1.49480
O1062       O  0.98702762  0.73231756  0.73733032    -1.83150
O1063       O  0.51058753  0.81013919  0.83568346    -0.73780
O1064       O  0.98190724  0.62543709  0.80696001    -0.73600
O1065       O  0.87139993  0.74126359  0.78042921    -0.73120
O1066       O  0.55790318  0.73815130  0.84419338    -0.73800
O1067       O  0.89832221  0.82397787  0.77524949    -0.73400
O1068       O  0.91015572  0.63343271  0.75846647    -0.73980
O1069       O  0.97807876  0.68980034  0.62080298    -0.73370
O1070       O  0.59299128  0.66222481  0.73316655    -0.74130
O1071       O  0.89528462  0.69322340  0.64746055    -0.73560
O1072       O  0.58476694  0.70951763  0.66111013    -0.73990
O1073       O  0.52613010  0.82094051  0.64585113    -0.73900
O1074       O  0.52926308  0.84846157  0.72808585    -0.73680
C1075       C  0.54322593  0.78364761  0.86137396     0.78100
C1076       C  0.93656372  0.60782481  0.79118140     0.78590
C1077       C  0.86225108  0.78985879  0.78639715     0.77550
C1078       C  0.92943921  0.68244318  0.61168271     0.77930
C1079       C  0.61004899  0.67678357  0.68767378     0.79070
C1080       C  0.53598551  0.85728844  0.67967077     0.78120
C1081       C  0.78878654  0.99749987  0.99430141    -0.20330
C1082       C  0.76738176  0.94985663  0.51399320    -0.08380
C1083       C  0.71645824  0.93408729  0.49697875     0.30480
C1084       C  0.69282267  0.96066870  0.95782477    -0.20330
C1085       C  0.70790260  0.51269350  0.94889124    -0.08390
C1086       C  0.76080982  0.52683702  0.95955860     0.30490
F1087       F  0.78567582  0.56837635  0.93641360    -0.18910
H1088       H  0.82732578  0.51255842  0.50502697     0.18850
H1089       H  0.65708634  0.94407244  0.94112977     0.18860
F1090       F  0.68486228  0.89890743  0.52162214    -0.18900
C1091       C  0.50732344  0.78196289  0.50545744    -0.20330
C1092       C  0.51198071  0.76882163  0.95191386    -0.08380
C1093       C  0.97616711  0.73028257  0.93134924     0.30480
C1094       C  0.94694613  0.69978587  0.96477100    -0.20330
C1095       C  0.94883504  0.70762678  0.51930315    -0.08390
C1096       C  0.97221092  0.75511392  0.53727660     0.30490
F1097       F  0.95759510  0.77844250  0.58291066    -0.18910
H1098       H  0.52839602  0.81549314  0.52201452     0.18850
H1099       H  0.92163240  0.66940082  0.94782926     0.18860
F1100       F  0.96646482  0.72151599  0.87976450    -0.18900
C1101       C  0.49025436  0.53716253  0.72934347    -0.20330
C1102       C  0.95066933  0.51589247  0.76229481    -0.08380
C1103       C  0.93720197  0.96209765  0.75622915     0.30480
C1104       C  0.96537920  0.93091397  0.72245474    -0.20330
C1105       C  0.51182515  0.95018307  0.69861943    -0.08390
C1106       C  0.51963025  0.00531065  0.69773878     0.30490
F1107       F  0.55628220  0.52849744  0.66597799    -0.18910
H1108       H  0.49981054  0.57852998  0.72664670     0.18850
H1109       H  0.95010500  0.89160906  0.71548499     0.18860
F1110       F  0.89517280  0.93964771  0.78094303    -0.18900
C1111       C  0.68121242  0.74021833  0.73970803    -0.20330
C1112       C  0.70227400  0.70561399  0.70178382    -0.08380
C1113       C  0.75643041  0.71056337  0.68944753     0.30480
C1114       C  0.78797305  0.74492735  0.71719641    -0.20330
C1115       C  0.76875456  0.77021339  0.76252982    -0.08390
C1116       C  0.71347756  0.77203129  0.76903616     0.30490
F1117       F  0.69041458  0.80530627  0.80403224    -0.18910
H1118       H  0.63977915  0.74417299  0.74790222     0.18850
H1119       H  0.82736113  0.75123654  0.70223882     0.18860
F1120       F  0.77901942  0.68439401  0.64882729    -0.18900
loop_ 
_geom_bond_atom_site_label_1 
_geom_bond_atom_site_label_2 
_geom_bond_distance 
_geom_bond_site_symmetry_2 
_ccdc_geom_bond_type 
C1           C54   1.557       .  S
C1           C76   1.565       .  S
C1           C97   1.546       .  S
C1          C135   1.546       .  S
C2           C31   1.563       .  S
C2           C51   1.541       .  S
C2           C96   1.545       .  S
C2          C122   1.518       .  S
C3           C30   1.553       .  S
C3           C77   1.562       .  S
C3           C95   1.542       .  S
C3          C112   1.525       .  S
C4           C50   1.555       .  S
C4           C74   1.538       .  S
C4           C99   1.540       .  S
C4          C132   1.516       .  S
C5           C29   1.551       .  S
C5           C52   1.545       .  S
C5           C72   1.552       .  S
C5          C102   1.519       .  S
C6           C28   1.571       .  S
C6           C73   1.558       .  S
C6           C98   1.544       .  S
C6          C115   1.551       .  S
C7           C26   1.551       .  S
C7           C49   1.537       .  S
C7           C75   1.524       .  S
C7          C105   1.538       .  S
C8           C27   1.552       .  S
C8           C53   1.559       .  S
C8          C100   1.538       .  S
C8          C125   1.549       .  S
Zn9          O18   2.025       .  S
Zn9          O25   1.994       .  S
Zn9         O574   2.073       .  S
Zn9         O293   1.964   1_545  S
Zn10         O17   2.009       .  S
Zn10         O21   2.026       .  S
Zn10        O155   2.088       .  S
Zn10        O573   1.995   1_455  S
Zn11         O19   1.972       .  S
Zn11         O22   1.958       .  S
Zn11        O296   2.108       .  S
Zn11        O153   1.951   1_554  S
Zn12         O20   2.138       .  S
Zn12         O23   2.113       .  S
Zn12         O24   2.149       .  S
Zn12         O13   1.935       .  S
O13        Zn289   1.964       .  S
O13        Zn570   1.995       .  S
O13        Zn151   1.951       .  S
O14        Zn569   2.073   1_455  S
O14          C26   1.271       .  A
O15        Zn150   2.088   1_554  S
O15          C27   1.268       .  A
O16        Zn291   2.108   1_545  S
O16          C28   1.278       .  A
O17         C306   1.277       .  A
O18         C168   1.283       .  A
O19         C587   1.280       .  A
O20         C169   1.296       .  A
O21          C30   1.273       .  A
O22          C29   1.262       .  A
O23         C590   1.293       .  A
O24         C311   1.294       .  A
O25          C31   1.267       .  A
C26         O297   1.277       .  A
C27         O579   1.280   1_455  A
C28         O158   1.283       .  A
C29         O160   1.296   1_554  A
C30         O583   1.293   1_455  A
C31         O304   1.294   1_545  A
Zn32         O37   1.929       .  S
Zn32         O48   2.098       .  S
Zn32        O321   1.956       .  S
Zn32         O36   1.975       .  S
Zn33         O38   1.985       .  S
Zn33         O40   2.075       .  S
Zn33        O324   1.971   1_545  S
Zn33        O316   1.987   1_545  S
Zn34         O39   2.131       .  S
Zn34         O42   2.124       .  S
Zn34        O325   2.152   1_545  S
Zn34        O316   1.945   1_545  S
Zn35         O43   1.950       .  S
Zn35         O46   2.105       .  S
Zn35         O47   1.988       .  S
Zn35         O36   1.949       .  S
O36        Zn313   1.987       .  S
O36        Zn314   1.945       .  S
O37         C329   1.273       .  A
O38          C50   1.267       .  A
O39          C51   1.295       .  A
O40          C49   1.268       .  A
O41        Zn312   1.956   1_545  S
O41          C51   1.262       .  A
O42          C50   1.292       .  A
O43          C52   1.260       .  A
O44        Zn313   1.971       .  S
O44          C53   1.274       .  A
O45        Zn314   2.152       .  S
O45          C52   1.294       .  A
O46          C53   1.277       .  A
O47          C54   1.281       .  A
O48          C54   1.272       .  A
C49         O317   1.273       .  A
Zn55         O60   2.132       .  S
Zn55         O64   2.108       .  S
Zn55        O211   2.165   1_554  S
Zn55        O199   1.949   1_554  S
Zn56         O61   1.972       .  S
Zn56         O67   2.104       .  S
Zn56        O203   1.940       .  S
Zn56         O59   1.963       .  S
Zn57         O62   1.950       .  S
Zn57         O65   2.117       .  S
Zn57        O208   1.944   1_554  S
Zn57        O199   1.979   1_554  S
Zn58         O66   2.070       .  S
Zn58         O69   1.988       .  S
Zn58         O70   1.991       .  S
Zn58         O59   1.967       .  S
O59        Zn195   1.949       .  S
O59        Zn197   1.979       .  S
O60          C72   1.289       .  A
O61         C213   1.280       .  A
O62          C74   1.259       .  A
O63        Zn196   1.940   1_554  S
O63          C72   1.260       .  A
O64          C74   1.289       .  A
O65          C73   1.276       .  A
O66          C75   1.274       .  A
O67          C76   1.275       .  A
O68        Zn197   1.944       .  S
O68          C75   1.270       .  A
O69          C76   1.274       .  A
O70          C77   1.270       .  A
O71        Zn195   2.165       .  S
O71          C77   1.297       .  A
C73         O201   1.280       .  A
Zn78         O87   2.135       .  S
Zn78        O643   1.953       .  S
Zn78        O654   1.986       .  S
Zn78         O82   1.934       .  S
Zn79         O86   2.138       .  S
Zn79         O90   2.120       .  S
Zn79        O644   2.127   1_455  S
Zn79        O642   1.935   1_455  S
Zn80         O85   2.011       .  S
Zn80         O88   1.947       .  S
Zn80         O91   2.149       .  S
Zn80         O82   1.928       .  S
Zn81         O92   1.936       .  S
Zn81         O93   2.133       .  S
Zn81        O649   1.995   1_455  S
Zn81        O642   1.931   1_455  S
O82        Zn639   1.935       .  S
O82        Zn641   1.931       .  S
O83        Zn638   1.953   1_455  S
O83          C95   1.267       .  A
O84        Zn639   2.127       .  S
O84          C96   1.293       .  A
O85          C97   1.270       .  A
O86          C95   1.294       .  A
O87          C97   1.283       .  A
O88          C96   1.266       .  A
O89        Zn641   1.995       .  S
O89          C98   1.268       .  A
O90          C99   1.292       .  A
O91          C98   1.286       .  A
O92          C99   1.265       .  A
O93         C100   1.282       .  A
O94        Zn638   1.986   1_455  S
O94         C100   1.268       .  A
C101        C242   1.415       .  A
C101        C386   1.371       .  A
C101        H528   1.081       .  S
C102        C103   1.416   1_554  A
C102        C241   1.415   1_554  A
C103        C244   1.360       .  A
C103        F110   1.349   1_556  S
C104        C243   1.360       .  A
C104        C385   1.394       .  A
C104        H109   1.081       .  S
C105        C106   1.411       .  A
C105        C384   1.394   1_545  A
C106        C381   1.371   1_545  A
C106        F107   1.360       .  S
H108        C521   1.082   1_544  S
C111        C252   1.408   1_554  A
C111        C676   1.379   1_455  A
C111        H118   1.083       .  S
C112        C251   1.408       .  A
C112        C673   1.424   1_455  A
C113        C114   1.366       .  A
C113        C672   1.424       .  A
C113        F120   1.356       .  S
C114        C255   1.405       .  A
C114        H119   1.085       .  S
C115        C116   1.411       .  A
C115        C254   1.405   1_554  A
C116        C671   1.379       .  A
C116        F117   1.355       .  S
C121        C682   1.410       .  A
C121        C406   1.365   1_655  A
C121        H128   1.079       .  S
C122        C681   1.410       .  A
C122        C403   1.413   1_545  A
C123        C124   1.373       .  A
C123        C402   1.413       .  A
C123        F130   1.356       .  S
C124        C685   1.406       .  A
C124        H129   1.080       .  S
C125        C126   1.414       .  A
C125        C684   1.406   1_455  A
C126        C401   1.365   1_455  A
C126        F407   1.362       .  S
F127        C406   1.361       .  S
C131        C132   1.412       .  A
C131        C136   1.363       .  A
C131        H138   1.077       .  S
C132        C133   1.412       .  A
C133        C134   1.370       .  A
C133        F140   1.357       .  S
C134        C135   1.407       .  A
C134        H139   1.078       .  S
C135        C136   1.413       .  A
C136        F137   1.362       .  S
C141        C194   1.557       .  S
C141        C216   1.565       .  S
C141        C237   1.546       .  S
C141        C275   1.546       .  S
C142        C171   1.563       .  S
C142        C191   1.541       .  S
C142        C236   1.545       .  S
C142        C262   1.518       .  S
C143        C170   1.553       .  S
C143        C217   1.562       .  S
C143        C235   1.542       .  S
C143        C252   1.525       .  S
C144        C190   1.555       .  S
C144        C214   1.538       .  S
C144        C239   1.540       .  S
C144        C272   1.516       .  S
C145        C169   1.551       .  S
C145        C192   1.545       .  S
C145        C212   1.552       .  S
C145        C242   1.519       .  S
C146        C168   1.571       .  S
C146        C213   1.558       .  S
C146        C238   1.544       .  S
C146        C255   1.551       .  S
C147        C166   1.551       .  S
C147        C189   1.537       .  S
C147        C215   1.524       .  S
C147        C245   1.538       .  S
C148        C167   1.552       .  S
C148        C193   1.559       .  S
C148        C240   1.538       .  S
C148        C265   1.549       .  S
Zn149       O714   2.073       .  S
Zn149       O158   2.025   1_556  S
Zn149       O165   1.993       .  S
Zn149       O433   1.964   1_545  S
Zn150       O157   2.009       .  S
Zn150       O161   2.026       .  S
Zn150       O713   1.995   1_455  S
Zn151       O436   2.108       .  S
Zn151       O159   1.972       .  S
Zn151       O162   1.958       .  S
Zn152       O160   2.138       .  S
Zn152       O163   2.113       .  S
Zn152       O164   2.149       .  S
Zn152       O153   1.935       .  S
O153       Zn429   1.964       .  S
O153       Zn710   1.995       .  S
O154       Zn709   2.073   1_455  S
O154        C166   1.271       .  A
O155        C167   1.268       .  A
O156       Zn431   2.108   1_545  S
O156        C168   1.278       .  A
O157        C446   1.277       .  A
O159        C727   1.280       .  A
O161        C170   1.273       .  A
O162        C169   1.262       .  A
O163        C730   1.293       .  A
O164        C451   1.294       .  A
O165        C171   1.267       .  A
C166        O437   1.277       .  A
C167        O719   1.280   1_455  A
C170        O723   1.293   1_455  A
C171        O444   1.294   1_545  A
Zn172       O177   1.929       .  S
Zn172       O461   1.956       .  S
Zn172       O188   2.098       .  S
Zn172       O176   1.975       .  S
Zn173       O178   1.985       .  S
Zn173       O180   2.075       .  S
Zn173       O464   1.971   1_545  S
Zn173       O456   1.987   1_545  S
Zn174       O179   2.131       .  S
Zn174       O182   2.124       .  S
Zn174       O465   2.152   1_545  S
Zn174       O456   1.945   1_545  S
Zn175       O183   1.950       .  S
Zn175       O186   2.105       .  S
Zn175       O187   1.988       .  S
Zn175       O176   1.949       .  S
O176       Zn453   1.987       .  S
O176       Zn454   1.945       .  S
O177        C469   1.273       .  A
O178        C190   1.267       .  A
O179        C191   1.295       .  A
O180        C189   1.268       .  A
O181       Zn452   1.956   1_545  S
O181        C191   1.262       .  A
O182        C190   1.292       .  A
O183        C192   1.260       .  A
O184       Zn453   1.971       .  S
O184        C193   1.274       .  A
O185       Zn454   2.152       .  S
O185        C192   1.294       .  A
O186        C193   1.277       .  A
O187        C194   1.281       .  A
O188        C194   1.272       .  A
C189        O457   1.273       .  A
Zn195       O200   2.132       .  S
Zn195       O204   2.108       .  S
Zn196       O201   1.972   1_556  S
Zn196       O207   2.104       .  S
Zn196       O199   1.963       .  S
Zn197       O202   1.950       .  S
Zn197       O205   2.117       .  S
Zn198       O206   2.070       .  S
Zn198       O209   1.988       .  S
Zn198       O210   1.991       .  S
Zn198       O199   1.967       .  S
O200        C212   1.289       .  A
O202        C214   1.259       .  A
O203        C212   1.260       .  A
O204        C214   1.289       .  A
O205        C213   1.276       .  A
O206        C215   1.274       .  A
O207        C216   1.275       .  A
O208        C215   1.270       .  A
O209        C216   1.274       .  A
O210        C217   1.270       .  A
O211        C217   1.296       .  A
Zn218       O783   1.953       .  S
Zn218       O227   2.135       .  S
Zn218       O794   1.986       .  S
Zn218       O222   1.934       .  S
Zn219       O784   2.127   1_455  S
Zn219       O226   2.138       .  S
Zn219       O230   2.120       .  S
Zn219       O782   1.935   1_455  S
Zn220       O225   2.011       .  S
Zn220       O228   1.947       .  S
Zn220       O231   2.149       .  S
Zn220       O222   1.928       .  S
Zn221       O789   1.995   1_455  S
Zn221       O232   1.936       .  S
Zn221       O233   2.133       .  S
Zn221       O782   1.931   1_455  S
O222       Zn779   1.935       .  S
O222       Zn781   1.931       .  S
O223       Zn778   1.953   1_455  S
O223        C235   1.267       .  A
O224       Zn779   2.127       .  S
O224        C236   1.293       .  A
O225        C237   1.270       .  A
O226        C235   1.294       .  A
O227        C237   1.283       .  A
O228        C236   1.266       .  A
O229       Zn781   1.995       .  S
O229        C238   1.268       .  A
O230        C239   1.292       .  A
O231        C238   1.286       .  A
O232        C239   1.265       .  A
O233        C240   1.282       .  A
O234       Zn778   1.986   1_455  S
O234        C240   1.268       .  A
C241        C526   1.371       .  A
C241        H388   1.081   1_556  S
C242        C243   1.416       .  A
C243        F250   1.349       .  S
C244        C525   1.394       .  A
C244        H249   1.081       .  S
C245        C524   1.394   1_545  A
C245        C246   1.411       .  A
C246        C521   1.371   1_545  A
C246        F247   1.360       .  S
H248        C381   1.082   1_545  S
C251        C816   1.379   1_455  A
C251        H258   1.083       .  S
C252        C813   1.424   1_455  A
C253        C812   1.424       .  A
C253        C254   1.366       .  A
C253        F260   1.356       .  S
C254        H259   1.085       .  S
C255        C256   1.411       .  A
C256        C811   1.379       .  A
C256        F257   1.355       .  S
C261        C822   1.410       .  A
C261        C546   1.365   1_655  A
C261        H268   1.079       .  S
C262        C821   1.410       .  A
C262        C543   1.413   1_545  A
C263        C542   1.413       .  A
C263        C264   1.373       .  A
C263        F270   1.356       .  S
C264        C825   1.406       .  A
C264        H269   1.080       .  S
C265        C824   1.406   1_455  A
C265        C266   1.414       .  A
C266        C541   1.365   1_455  A
C266        F547   1.362       .  S
F267        C546   1.361       .  S
C271        C272   1.412       .  A
C271        C276   1.363       .  A
C271        H278   1.077       .  S
C272        C273   1.412       .  A
C273        C274   1.370       .  A
C273        F280   1.357       .  S
C274        C275   1.407       .  A
C274        H279   1.078       .  S
C275        C276   1.413       .  A
C276        F277   1.362       .  S
C281        C334   1.557       .  S
C281        C356   1.565       .  S
C281        C377   1.546       .  S
C281        C415   1.546       .  S
C282        C311   1.563       .  S
C282        C331   1.541       .  S
C282        C376   1.545       .  S
C282        C402   1.518       .  S
C283        C310   1.553       .  S
C283        C357   1.562       .  S
C283        C375   1.542       .  S
C283        C392   1.525       .  S
C284        C330   1.555       .  S
C284        C354   1.538       .  S
C284        C379   1.540       .  S
C284        C412   1.516       .  S
C285        C309   1.551       .  S
C285        C332   1.545       .  S
C285        C352   1.552       .  S
C285        C382   1.519       .  S
C286        C308   1.571       .  S
C286        C353   1.558       .  S
C286        C378   1.544       .  S
C286        C395   1.551       .  S
C287        C306   1.551       .  S
C287        C329   1.537       .  S
C287        C355   1.524       .  S
C287        C385   1.538       .  S
C288        C307   1.552       .  S
C288        C333   1.559       .  S
C288        C380   1.538       .  S
C288        C405   1.549       .  S
Zn289       O854   2.073       .  S
Zn289       O298   2.025       .  S
Zn289       O305   1.993       .  S
Zn290       O435   2.088       .  S
Zn290       O297   2.008   1_565  S
Zn290       O301   2.026       .  S
Zn290       O853   1.995   1_455  S
Zn291       O299   1.972       .  S
Zn291       O302   1.959       .  S
Zn291       O433   1.951   1_554  S
Zn292       O300   2.138       .  S
Zn292       O303   2.113       .  S
Zn292       O304   2.149       .  S
Zn292       O293   1.935       .  S
O293       Zn850   1.995       .  S
O293       Zn431   1.951       .  S
O294       Zn849   2.073   1_455  S
O294        C306   1.271       .  A
O295       Zn430   2.088   1_554  S
O295        C307   1.268       .  A
O296        C308   1.278       .  A
O298        C448   1.283       .  A
O299        C867   1.280       .  A
O300        C449   1.296       .  A
O301        C310   1.273       .  A
O302        C309   1.262       .  A
O303        C870   1.293       .  A
O305        C311   1.267       .  A
C307        O859   1.280   1_455  A
C308        O438   1.283       .  A
C309        O440   1.296   1_554  A
C310        O863   1.293   1_455  A
Zn312       O317   1.929   1_565  S
Zn312       O328   2.098       .  S
Zn312       O316   1.975       .  S
Zn313       O318   1.985       .  S
Zn313       O320   2.075       .  S
Zn314       O319   2.130       .  S
Zn314       O322   2.124       .  S
Zn315       O323   1.950       .  S
Zn315       O326   2.105       .  S
Zn315       O327   1.988       .  S
Zn315       O316   1.949       .  S
O318        C330   1.267       .  A
O319        C331   1.295       .  A
O320        C329   1.268       .  A
O321        C331   1.262       .  A
O322        C330   1.292       .  A
O323        C332   1.260       .  A
O324        C333   1.274       .  A
O325        C332   1.294       .  A
O326        C333   1.277       .  A
O327        C334   1.281       .  A
O328        C334   1.272       .  A
Zn335       O340   2.132       .  S
Zn335       O344   2.108       .  S
Zn335       O491   2.166   1_554  S
Zn335       O479   1.949   1_554  S
Zn336       O341   1.972       .  S
Zn336       O483   1.940       .  S
Zn336       O347   2.104       .  S
Zn336       O339   1.963       .  S
Zn337       O342   1.950       .  S
Zn337       O345   2.117       .  S
Zn337       O488   1.944   1_554  S
Zn337       O479   1.979   1_554  S
Zn338       O346   2.070       .  S
Zn338       O349   1.989       .  S
Zn338       O350   1.991       .  S
Zn338       O339   1.967       .  S
O339       Zn475   1.949       .  S
O339       Zn477   1.979       .  S
O340        C352   1.289       .  A
O341        C493   1.280       .  A
O342        C354   1.259       .  A
O343       Zn476   1.940   1_554  S
O343        C352   1.260       .  A
O344        C354   1.289       .  A
O345        C353   1.276       .  A
O346        C355   1.274       .  A
O347        C356   1.275       .  A
O348       Zn477   1.944       .  S
O348        C355   1.270       .  A
O349        C356   1.274       .  A
O350        C357   1.270       .  A
O351       Zn475   2.166       .  S
O351        C357   1.297       .  A
C353        O481   1.280       .  A
Zn358       O923   1.953       .  S
Zn358       O367   2.136       .  S
Zn358       O934   1.987       .  S
Zn358       O362   1.934       .  S
Zn359       O924   2.128   1_455  S
Zn359       O366   2.138       .  S
Zn359       O370   2.120       .  S
Zn359       O922   1.935   1_455  S
Zn360       O365   2.011       .  S
Zn360       O368   1.947       .  S
Zn360       O371   2.149       .  S
Zn360       O362   1.928       .  S
Zn361       O929   1.995   1_455  S
Zn361       O372   1.936       .  S
Zn361       O373   2.133       .  S
Zn361       O922   1.931   1_455  S
O362       Zn919   1.935       .  S
O362       Zn921   1.931       .  S
O363       Zn918   1.953   1_455  S
O363        C375   1.267       .  A
O364       Zn919   2.128       .  S
O364        C376   1.293       .  A
O365        C377   1.270       .  A
O366        C375   1.294       .  A
O367        C377   1.283       .  A
O368        C376   1.266       .  A
O369       Zn921   1.995       .  S
O369        C378   1.268       .  A
O370        C379   1.292       .  A
O371        C378   1.286       .  A
O372        C379   1.265       .  A
O373        C380   1.282       .  A
O374       Zn918   1.987   1_455  S
O374        C380   1.268       .  A
C381        C522   1.415       .  A
C382        C521   1.415   1_554  A
C382        C383   1.416   1_554  A
C383        C524   1.360       .  A
C383        F390   1.349   1_556  S
C384        C523   1.360       .  A
C384        H389   1.082       .  S
C385        C386   1.411       .  A
C386        F387   1.360       .  S
C391        C532   1.408   1_554  A
C391        C956   1.379   1_455  A
C391        H398   1.083       .  S
C392        C531   1.408       .  A
C392        C953   1.424   1_455  A
C393        C952   1.424       .  A
C393        C394   1.366       .  A
C393        F400   1.356       .  S
C394        C535   1.405       .  A
C394        H399   1.085       .  S
C395        C534   1.405   1_554  A
C395        C396   1.411       .  A
C396        C951   1.379       .  A
C396        F397   1.355       .  S
C401        C962   1.410       .  A
C401        H408   1.079       .  S
C402        C961   1.410       .  A
C403        C404   1.373       .  A
C403        F410   1.356       .  S
C404        C965   1.406       .  A
C404        H409   1.080       .  S
C405        C964   1.406   1_455  A
C405        C406   1.414   1_565  A
C411        C412   1.412       .  A
C411        C416   1.363       .  A
C411        H418   1.077       .  S
C412        C413   1.412       .  A
C413        C414   1.370       .  A
C413        F420   1.357       .  S
C414        C415   1.407       .  A
C414        H419   1.078       .  S
C415        C416   1.413       .  A
C416        F417   1.362       .  S
C421        C474   1.557       .  S
C421        C496   1.565       .  S
C421        C517   1.546       .  S
C421        C555   1.546       .  S
C422        C451   1.563       .  S
C422        C471   1.541       .  S
C422        C516   1.545       .  S
C422        C542   1.518       .  S
C423        C450   1.553       .  S
C423        C497   1.562       .  S
C423        C515   1.542       .  S
C423        C532   1.525       .  S
C424        C470   1.555       .  S
C424        C494   1.538       .  S
C424        C519   1.540       .  S
C424        C552   1.516       .  S
C425        C449   1.551       .  S
C425        C472   1.545       .  S
C425        C492   1.552       .  S
C425        C522   1.519       .  S
C426        C448   1.571       .  S
C426        C493   1.558       .  S
C426        C518   1.544       .  S
C426        C535   1.551       .  S
C427        C446   1.551       .  S
C427        C469   1.537       .  S
C427        C495   1.525       .  S
C427        C525   1.538       .  S
C428        C447   1.552       .  S
C428        C473   1.559       .  S
C428        C520   1.538       .  S
C428        C545   1.549       .  S
Zn429       O994   2.073       .  S
Zn429       O438   2.025   1_556  S
Zn429       O445   1.993       .  S
Zn430       O437   2.008   1_565  S
Zn430       O441   2.026       .  S
Zn430       O993   1.995   1_455  S
Zn431       O439   1.972       .  S
Zn431       O442   1.959       .  S
Zn432       O440   2.138       .  S
Zn432       O443   2.113       .  S
Zn432       O444   2.149       .  S
Zn432       O433   1.935       .  S
O433       Zn990   1.995       .  S
O434       Zn989   2.073   1_455  S
O434        C446   1.271       .  A
O435        C447   1.268       .  A
O436        C448   1.278       .  A
O439       C1007   1.280       .  A
O441        C450   1.273       .  A
O442        C449   1.262       .  A
O443       C1010   1.293       .  A
O445        C451   1.267       .  A
C447        O999   1.280   1_455  A
C450       O1003   1.293   1_455  A
Zn452       O457   1.929   1_565  S
Zn452       O468   2.098       .  S
Zn452       O456   1.975       .  S
Zn453       O458   1.985       .  S
Zn453       O460   2.075       .  S
Zn454       O459   2.130       .  S
Zn454       O462   2.124       .  S
Zn455       O463   1.950       .  S
Zn455       O466   2.105       .  S
Zn455       O467   1.988       .  S
Zn455       O456   1.949       .  S
O458        C470   1.267       .  A
O459        C471   1.295       .  A
O460        C469   1.268       .  A
O461        C471   1.262       .  A
O462        C470   1.292       .  A
O463        C472   1.260       .  A
O464        C473   1.274       .  A
O465        C472   1.294       .  A
O466        C473   1.277       .  A
O467        C474   1.281       .  A
O468        C474   1.272       .  A
Zn475       O480   2.132       .  S
Zn475       O484   2.108       .  S
Zn476       O481   1.972   1_556  S
Zn476       O487   2.104       .  S
Zn476       O479   1.963       .  S
Zn477       O482   1.950       .  S
Zn477       O485   2.117       .  S
Zn478       O486   2.070       .  S
Zn478       O489   1.989       .  S
Zn478       O490   1.991       .  S
Zn478       O479   1.967       .  S
O480        C492   1.289       .  A
O482        C494   1.259       .  A
O483        C492   1.260       .  A
O484        C494   1.289       .  A
O485        C493   1.276       .  A
O486        C495   1.274       .  A
O487        C496   1.275       .  A
O488        C495   1.270       .  A
O489        C496   1.274       .  A
O490        C497   1.270       .  A
O491        C497   1.297       .  A
Zn498      O1063   1.953       .  S
Zn498       O507   2.136       .  S
Zn498      O1074   1.987       .  S
Zn498       O502   1.934       .  S
Zn499      O1064   2.128   1_455  S
Zn499       O506   2.138       .  S
Zn499       O510   2.120       .  S
Zn499      O1062   1.935   1_455  S
Zn500       O505   2.011       .  S
Zn500       O508   1.947       .  S
Zn500       O511   2.149       .  S
Zn500       O502   1.928       .  S
Zn501      O1069   1.995   1_455  S
Zn501       O512   1.936       .  S
Zn501       O513   2.133       .  S
Zn501      O1062   1.931   1_455  S
O502      Zn1059   1.935       .  S
O502      Zn1061   1.931       .  S
O503      Zn1058   1.953   1_455  S
O503        C515   1.267       .  A
O504      Zn1059   2.128       .  S
O504        C516   1.293       .  A
O505        C517   1.270       .  A
O506        C515   1.294       .  A
O507        C517   1.283       .  A
O508        C516   1.266       .  A
O509      Zn1061   1.995       .  S
O509        C518   1.268       .  A
O510        C519   1.292       .  A
O511        C518   1.286       .  A
O512        C519   1.265       .  A
O513        C520   1.282       .  A
O514      Zn1058   1.987   1_455  S
O514        C520   1.268       .  A
C522        C523   1.416       .  A
C523        F530   1.349       .  S
C524        H529   1.082       .  S
C525        C526   1.411       .  A
C526        F527   1.360       .  S
C531       C1096   1.379   1_455  A
C531        H538   1.083       .  S
C532       C1093   1.424   1_455  A
C533       C1092   1.424       .  A
C533        C534   1.366       .  A
C533        F540   1.356       .  S
C534        H539   1.085       .  S
C535        C536   1.411       .  A
C536       C1091   1.379       .  A
C536        F537   1.355       .  S
C541       C1102   1.410       .  A
C541        H548   1.079       .  S
C542       C1101   1.410       .  A
C543        C544   1.373       .  A
C543        F550   1.356       .  S
C544       C1105   1.406       .  A
C544        H549   1.080       .  S
C545       C1104   1.406   1_455  A
C545        C546   1.414   1_565  A
C551        C552   1.412       .  A
C551        C556   1.363       .  A
C551        H558   1.077       .  S
C552        C553   1.412       .  A
C553        C554   1.370       .  A
C553        F560   1.357       .  S
C554        C555   1.407       .  A
C554        H559   1.078       .  S
C555        C556   1.413       .  A
C556        F557   1.362       .  S
C561        C614   1.557       .  S
C561        C636   1.565       .  S
C561        C657   1.546       .  S
C561        C695   1.546       .  S
C562        C591   1.563       .  S
C562        C611   1.541       .  S
C562        C656   1.545       .  S
C562        C682   1.518       .  S
C563        C590   1.553       .  S
C563        C637   1.562       .  S
C563        C655   1.542       .  S
C563        C672   1.525       .  S
C564        C610   1.555       .  S
C564        C634   1.538       .  S
C564        C659   1.540       .  S
C564        C692   1.516       .  S
C565        C589   1.551       .  S
C565        C612   1.545       .  S
C565        C632   1.552       .  S
C565        C662   1.519       .  S
C566        C588   1.571       .  S
C566        C633   1.558       .  S
C566        C658   1.544       .  S
C566        C675   1.551       .  S
C567        C586   1.551       .  S
C567        C609   1.537       .  S
C567        C635   1.524       .  S
C567        C665   1.538       .  S
C568        C587   1.552       .  S
C568        C613   1.559       .  S
C568        C660   1.538       .  S
C568        C685   1.549       .  S
Zn569       O578   2.025       .  S
Zn569       O585   1.994       .  S
Zn569       O853   1.964   1_545  S
Zn570       O715   2.088       .  S
Zn570       O577   2.009       .  S
Zn570       O581   2.026       .  S
Zn571       O856   2.108       .  S
Zn571       O579   1.972       .  S
Zn571       O582   1.958       .  S
Zn571       O713   1.951   1_554  S
Zn572       O580   2.138       .  S
Zn572       O583   2.113       .  S
Zn572       O584   2.149       .  S
Zn572       O573   1.935       .  S
O573       Zn849   1.964       .  S
O573       Zn711   1.951       .  S
O574        C586   1.271       .  A
O575       Zn710   2.088   1_554  S
O575        C587   1.268       .  A
O576       Zn851   2.108   1_545  S
O576        C588   1.278       .  A
O577        C866   1.277       .  A
O578        C728   1.283       .  A
O580        C729   1.296       .  A
O581        C590   1.273       .  A
O582        C589   1.262       .  A
O584        C871   1.294       .  A
O585        C591   1.267       .  A
C586        O857   1.277       .  A
C588        O718   1.283       .  A
C589        O720   1.296   1_554  A
C591        O864   1.294   1_545  A
Zn592       O597   1.929       .  S
Zn592       O881   1.956       .  S
Zn592       O608   2.098       .  S
Zn592       O596   1.975       .  S
Zn593       O598   1.985       .  S
Zn593       O600   2.075       .  S
Zn593       O884   1.971   1_545  S
Zn593       O876   1.987   1_545  S
Zn594       O599   2.131       .  S
Zn594       O602   2.124       .  S
Zn594       O885   2.152   1_545  S
Zn594       O876   1.945   1_545  S
Zn595       O603   1.950       .  S
Zn595       O606   2.105       .  S
Zn595       O607   1.988       .  S
Zn595       O596   1.949       .  S
O596       Zn873   1.987       .  S
O596       Zn874   1.945       .  S
O597        C889   1.273       .  A
O598        C610   1.267       .  A
O599        C611   1.295       .  A
O600        C609   1.268       .  A
O601       Zn872   1.956   1_545  S
O601        C611   1.262       .  A
O602        C610   1.292       .  A
O603        C612   1.260       .  A
O604       Zn873   1.971       .  S
O604        C613   1.274       .  A
O605       Zn874   2.152       .  S
O605        C612   1.294       .  A
O606        C613   1.277       .  A
O607        C614   1.281       .  A
O608        C614   1.272       .  A
C609        O877   1.273       .  A
Zn615       O620   2.132       .  S
Zn615       O624   2.108       .  S
Zn615       O771   2.165   1_554  S
Zn615       O759   1.949   1_554  S
Zn616       O621   1.972       .  S
Zn616       O763   1.940       .  S
Zn616       O627   2.104       .  S
Zn616       O619   1.963       .  S
Zn617       O622   1.950       .  S
Zn617       O625   2.117       .  S
Zn617       O768   1.944   1_554  S
Zn617       O759   1.979   1_554  S
Zn618       O626   2.070       .  S
Zn618       O629   1.988       .  S
Zn618       O630   1.991       .  S
Zn618       O619   1.967       .  S
O619       Zn755   1.949       .  S
O619       Zn757   1.979       .  S
O620        C632   1.289       .  A
O621        C773   1.280       .  A
O622        C634   1.259       .  A
O623       Zn756   1.940   1_554  S
O623        C632   1.260       .  A
O624        C634   1.289       .  A
O625        C633   1.276       .  A
O626        C635   1.274       .  A
O627        C636   1.275       .  A
O628       Zn757   1.944       .  S
O628        C635   1.270       .  A
O629        C636   1.274       .  A
O630        C637   1.270       .  A
O631       Zn755   2.165       .  S
O631        C637   1.297       .  A
C633        O761   1.280       .  A
Zn638       O647   2.135       .  S
Zn638       O642   1.934       .  S
Zn639       O646   2.138       .  S
Zn639       O650   2.120       .  S
Zn640       O645   2.011       .  S
Zn640       O648   1.947       .  S
Zn640       O651   2.149       .  S
Zn640       O642   1.928       .  S
Zn641       O652   1.936       .  S
Zn641       O653   2.133       .  S
O643        C655   1.267       .  A
O644        C656   1.293       .  A
O645        C657   1.270       .  A
O646        C655   1.294       .  A
O647        C657   1.283       .  A
O648        C656   1.266       .  A
O649        C658   1.268       .  A
O650        C659   1.292       .  A
O651        C658   1.286       .  A
O652        C659   1.265       .  A
O653        C660   1.282       .  A
O654        C660   1.268       .  A
C661        C802   1.415       .  A
C661        C946   1.371       .  A
C661       H1088   1.081       .  S
C662        C801   1.415   1_554  A
C662        C663   1.416   1_554  A
C663        C804   1.360       .  A
C663        F670   1.349   1_556  S
C664        C803   1.360       .  A
C664        C945   1.394       .  A
C664        H669   1.081       .  S
C665        C944   1.394   1_545  A
C665        C666   1.411       .  A
C666        C941   1.371   1_545  A
C666        F667   1.360       .  S
H668       C1081   1.082   1_544  S
C671        C812   1.408   1_554  A
C671        H678   1.083       .  S
C672        C811   1.408       .  A
C673        C674   1.366       .  A
C673        F680   1.356       .  S
C674        C815   1.405       .  A
C674        H679   1.085       .  S
C675        C814   1.405   1_554  A
C675        C676   1.411       .  A
C676        F677   1.355       .  S
C681        C966   1.365       .  A
C681        H688   1.079       .  S
C682        C963   1.413   1_545  A
C683        C962   1.413       .  A
C683        C684   1.373       .  A
C683        F690   1.356       .  S
C684        H689   1.080       .  S
C685        C686   1.414       .  A
C686        C961   1.365       .  A
C686        F967   1.362       .  S
F687        C966   1.361       .  S
C691        C692   1.412       .  A
C691        C696   1.363       .  A
C691        H698   1.077       .  S
C692        C693   1.412       .  A
C693        C694   1.370       .  A
C693        F700   1.357       .  S
C694        C695   1.407       .  A
C694        H699   1.078       .  S
C695        C696   1.413       .  A
C696        F697   1.362       .  S
C701        C754   1.557       .  S
C701        C776   1.565       .  S
C701        C797   1.546       .  S
C701        C835   1.546       .  S
C702        C731   1.563       .  S
C702        C751   1.541       .  S
C702        C796   1.545       .  S
C702        C822   1.518       .  S
C703        C730   1.553       .  S
C703        C777   1.562       .  S
C703        C795   1.542       .  S
C703        C812   1.525       .  S
C704        C750   1.555       .  S
C704        C774   1.538       .  S
C704        C799   1.540       .  S
C704        C832   1.516       .  S
C705        C729   1.551       .  S
C705        C752   1.545       .  S
C705        C772   1.552       .  S
C705        C802   1.519       .  S
C706        C728   1.571       .  S
C706        C773   1.558       .  S
C706        C798   1.544       .  S
C706        C815   1.551       .  S
C707        C726   1.551       .  S
C707        C749   1.537       .  S
C707        C775   1.524       .  S
C707        C805   1.538       .  S
C708        C727   1.552       .  S
C708        C753   1.559       .  S
C708        C800   1.538       .  S
C708        C825   1.549       .  S
Zn709       O718   2.025   1_556  S
Zn709       O725   1.993       .  S
Zn709       O993   1.964   1_545  S
Zn710       O717   2.009       .  S
Zn710       O721   2.026       .  S
Zn711       O996   2.108       .  S
Zn711       O719   1.972       .  S
Zn711       O722   1.958       .  S
Zn712       O720   2.138       .  S
Zn712       O723   2.113       .  S
Zn712       O724   2.149       .  S
Zn712       O713   1.935       .  S
O713       Zn989   1.964       .  S
O714        C726   1.271       .  A
O715        C727   1.268       .  A
O716       Zn991   2.108   1_545  S
O716        C728   1.278       .  A
O717       C1006   1.277       .  A
O721        C730   1.273       .  A
O722        C729   1.262       .  A
O724       C1011   1.294       .  A
O725        C731   1.267       .  A
C726        O997   1.277       .  A
C731       O1004   1.294   1_545  A
Zn732       O737   1.929       .  S
Zn732      O1021   1.956       .  S
Zn732       O748   2.098       .  S
Zn732       O736   1.975       .  S
Zn733       O738   1.985       .  S
Zn733       O740   2.075       .  S
Zn733      O1024   1.971   1_545  S
Zn733      O1016   1.987   1_545  S
Zn734       O739   2.131       .  S
Zn734       O742   2.124       .  S
Zn734      O1025   2.152   1_545  S
Zn734      O1016   1.945   1_545  S
Zn735       O743   1.950       .  S
Zn735       O746   2.105       .  S
Zn735       O747   1.988       .  S
Zn735       O736   1.949       .  S
O736      Zn1013   1.987       .  S
O736      Zn1014   1.945       .  S
O737       C1029   1.273       .  A
O738        C750   1.267       .  A
O739        C751   1.295       .  A
O740        C749   1.268       .  A
O741      Zn1012   1.956   1_545  S
O741        C751   1.262       .  A
O742        C750   1.292       .  A
O743        C752   1.260       .  A
O744      Zn1013   1.971       .  S
O744        C753   1.274       .  A
O745      Zn1014   2.152       .  S
O745        C752   1.294       .  A
O746        C753   1.277       .  A
O747        C754   1.281       .  A
O748        C754   1.272       .  A
C749       O1017   1.273       .  A
Zn755       O760   2.132       .  S
Zn755       O764   2.108       .  S
Zn756       O761   1.972   1_556  S
Zn756       O767   2.104       .  S
Zn756       O759   1.963       .  S
Zn757       O762   1.950       .  S
Zn757       O765   2.117       .  S
Zn758       O766   2.070       .  S
Zn758       O769   1.988       .  S
Zn758       O770   1.991       .  S
Zn758       O759   1.967       .  S
O760        C772   1.289       .  A
O762        C774   1.259       .  A
O763        C772   1.260       .  A
O764        C774   1.289       .  A
O765        C773   1.276       .  A
O766        C775   1.274       .  A
O767        C776   1.275       .  A
O768        C775   1.270       .  A
O769        C776   1.274       .  A
O770        C777   1.270       .  A
O771        C777   1.296       .  A
Zn778       O787   2.135       .  S
Zn778       O782   1.934       .  S
Zn779       O786   2.138       .  S
Zn779       O790   2.120       .  S
Zn780       O785   2.011       .  S
Zn780       O788   1.947       .  S
Zn780       O791   2.149       .  S
Zn780       O782   1.928       .  S
Zn781       O792   1.936       .  S
Zn781       O793   2.133       .  S
O783        C795   1.267       .  A
O784        C796   1.293       .  A
O785        C797   1.270       .  A
O786        C795   1.294       .  A
O787        C797   1.283       .  A
O788        C796   1.266       .  A
O789        C798   1.268       .  A
O790        C799   1.292       .  A
O791        C798   1.286       .  A
O792        C799   1.265       .  A
O793        C800   1.282       .  A
O794        C800   1.268       .  A
C801       C1086   1.371       .  A
C801        H948   1.081   1_556  S
C802        C803   1.416       .  A
C803        F810   1.349       .  S
C804       C1085   1.394       .  A
C804        H809   1.081       .  S
C805       C1084   1.394   1_545  A
C805        C806   1.411       .  A
C806       C1081   1.371   1_545  A
C806        F807   1.360       .  S
H808        C941   1.082   1_545  S
C811        H818   1.083       .  S
C813        C814   1.366       .  A
C813        F820   1.356       .  S
C814        H819   1.085       .  S
C815        C816   1.411       .  A
C816        F817   1.355       .  S
C821       C1106   1.365       .  A
C821        H828   1.079       .  S
C822       C1103   1.413   1_545  A
C823       C1102   1.413       .  A
C823        C824   1.373       .  A
C823        F830   1.356       .  S
C824        H829   1.080       .  S
C825        C826   1.414       .  A
C826       C1101   1.365       .  A
C826       F1107   1.362       .  S
F827       C1106   1.361       .  S
C831        C832   1.412       .  A
C831        C836   1.363       .  A
C831        H838   1.077       .  S
C832        C833   1.412       .  A
C833        C834   1.370       .  A
C833        F840   1.357       .  S
C834        C835   1.407       .  A
C834        H839   1.078       .  S
C835        C836   1.413       .  A
C836        F837   1.362       .  S
C841        C894   1.557       .  S
C841        C916   1.565       .  S
C841        C937   1.546       .  S
C841        C975   1.546       .  S
C842        C871   1.563       .  S
C842        C891   1.541       .  S
C842        C936   1.545       .  S
C842        C962   1.518       .  S
C843        C870   1.553       .  S
C843        C917   1.562       .  S
C843        C935   1.542       .  S
C843        C952   1.525       .  S
C844        C890   1.555       .  S
C844        C914   1.538       .  S
C844        C939   1.540       .  S
C844        C972   1.516       .  S
C845        C869   1.551       .  S
C845        C892   1.545       .  S
C845        C912   1.552       .  S
C845        C942   1.519       .  S
C846        C868   1.571       .  S
C846        C913   1.558       .  S
C846        C938   1.544       .  S
C846        C955   1.551       .  S
C847        C866   1.551       .  S
C847        C889   1.537       .  S
C847        C915   1.524       .  S
C847        C945   1.538       .  S
C848        C867   1.552       .  S
C848        C893   1.559       .  S
C848        C940   1.538       .  S
C848        C965   1.549       .  S
Zn849       O858   2.025       .  S
Zn849       O865   1.993       .  S
Zn850       O995   2.088       .  S
Zn850       O857   2.008   1_565  S
Zn850       O861   2.026       .  S
Zn851       O859   1.972       .  S
Zn851       O862   1.959       .  S
Zn851       O993   1.951   1_554  S
Zn852       O860   2.138       .  S
Zn852       O863   2.113       .  S
Zn852       O864   2.149       .  S
Zn852       O853   1.935       .  S
O853       Zn991   1.951       .  S
O854        C866   1.271       .  A
O855       Zn990   2.088   1_554  S
O855        C867   1.268       .  A
O856        C868   1.278       .  A
O858       C1008   1.283       .  A
O860       C1009   1.296       .  A
O861        C870   1.273       .  A
O862        C869   1.262       .  A
O865        C871   1.267       .  A
C868        O998   1.283       .  A
C869       O1000   1.296   1_554  A
Zn872       O877   1.929   1_565  S
Zn872       O888   2.098       .  S
Zn872       O876   1.975       .  S
Zn873       O878   1.985       .  S
Zn873       O880   2.075       .  S
Zn874       O879   2.130       .  S
Zn874       O882   2.124       .  S
Zn875       O883   1.950       .  S
Zn875       O886   2.105       .  S
Zn875       O887   1.988       .  S
Zn875       O876   1.949       .  S
O878        C890   1.267       .  A
O879        C891   1.295       .  A
O880        C889   1.268       .  A
O881        C891   1.262       .  A
O882        C890   1.292       .  A
O883        C892   1.260       .  A
O884        C893   1.274       .  A
O885        C892   1.294       .  A
O886        C893   1.277       .  A
O887        C894   1.281       .  A
O888        C894   1.272       .  A
Zn895       O900   2.132       .  S
Zn895       O904   2.108       .  S
Zn895      O1051   2.166   1_554  S
Zn895      O1039   1.949   1_554  S
Zn896       O901   1.972       .  S
Zn896      O1043   1.940       .  S
Zn896       O907   2.104       .  S
Zn896       O899   1.963       .  S
Zn897       O902   1.950       .  S
Zn897       O905   2.117       .  S
Zn897      O1048   1.944   1_554  S
Zn897      O1039   1.979   1_554  S
Zn898       O906   2.070       .  S
Zn898       O909   1.989       .  S
Zn898       O910   1.991       .  S
Zn898       O899   1.967       .  S
O899      Zn1035   1.949       .  S
O899      Zn1037   1.979       .  S
O900        C912   1.289       .  A
O901       C1053   1.280       .  A
O902        C914   1.259       .  A
O903      Zn1036   1.940   1_554  S
O903        C912   1.260       .  A
O904        C914   1.289       .  A
O905        C913   1.276       .  A
O906        C915   1.274       .  A
O907        C916   1.275       .  A
O908      Zn1037   1.944       .  S
O908        C915   1.270       .  A
O909        C916   1.274       .  A
O910        C917   1.270       .  A
O911      Zn1035   2.166       .  S
O911        C917   1.297       .  A
C913       O1041   1.280       .  A
Zn918       O927   2.136       .  S
Zn918       O922   1.934       .  S
Zn919       O926   2.138       .  S
Zn919       O930   2.120       .  S
Zn920       O925   2.011       .  S
Zn920       O928   1.947       .  S
Zn920       O931   2.149       .  S
Zn920       O922   1.928       .  S
Zn921       O932   1.936       .  S
Zn921       O933   2.133       .  S
O923        C935   1.267       .  A
O924        C936   1.293       .  A
O925        C937   1.270       .  A
O926        C935   1.294       .  A
O927        C937   1.283       .  A
O928        C936   1.266       .  A
O929        C938   1.268       .  A
O930        C939   1.292       .  A
O931        C938   1.286       .  A
O932        C939   1.265       .  A
O933        C940   1.282       .  A
O934        C940   1.268       .  A
C941       C1082   1.415       .  A
C942       C1081   1.415   1_554  A
C942        C943   1.416   1_554  A
C943       C1084   1.360       .  A
C943        F950   1.349   1_556  S
C944       C1083   1.360       .  A
C944        H949   1.082       .  S
C945        C946   1.411       .  A
C946        F947   1.360       .  S
C951       C1092   1.408   1_554  A
C951        H958   1.083       .  S
C952       C1091   1.408       .  A
C953        C954   1.366       .  A
C953        F960   1.356       .  S
C954       C1095   1.405       .  A
C954        H959   1.085       .  S
C955       C1094   1.405   1_554  A
C955        C956   1.411       .  A
C956        F957   1.355       .  S
C961        H968   1.079       .  S
C963        C964   1.373       .  A
C963        F970   1.356       .  S
C964        H969   1.080       .  S
C965        C966   1.414   1_565  A
C971        C972   1.412       .  A
C971        C976   1.363       .  A
C971        H978   1.077       .  S
C972        C973   1.412       .  A
C973        C974   1.370       .  A
C973        F980   1.357       .  S
C974        C975   1.407       .  A
C974        H979   1.078       .  S
C975        C976   1.413       .  A
C976        F977   1.362       .  S
C981       C1034   1.557       .  S
C981       C1056   1.565       .  S
C981       C1077   1.546       .  S
C981       C1115   1.546       .  S
C982       C1011   1.563       .  S
C982       C1031   1.541       .  S
C982       C1076   1.545       .  S
C982       C1102   1.518       .  S
C983       C1010   1.553       .  S
C983       C1057   1.562       .  S
C983       C1075   1.542       .  S
C983       C1092   1.525       .  S
C984       C1030   1.555       .  S
C984       C1054   1.538       .  S
C984       C1079   1.540       .  S
C984       C1112   1.516       .  S
C985       C1009   1.551       .  S
C985       C1032   1.545       .  S
C985       C1052   1.552       .  S
C985       C1082   1.519       .  S
C986       C1008   1.571       .  S
C986       C1053   1.558       .  S
C986       C1078   1.544       .  S
C986       C1095   1.551       .  S
C987       C1006   1.551       .  S
C987       C1029   1.537       .  S
C987       C1055   1.525       .  S
C987       C1085   1.538       .  S
C988       C1007   1.552       .  S
C988       C1033   1.559       .  S
C988       C1080   1.538       .  S
C988       C1105   1.549       .  S
Zn989       O998   2.025   1_556  S
Zn989      O1005   1.993       .  S
Zn990       O997   2.008   1_565  S
Zn990      O1001   2.026       .  S
Zn991       O999   1.972       .  S
Zn991      O1002   1.959       .  S
Zn992      O1000   2.138       .  S
Zn992      O1003   2.113       .  S
Zn992      O1004   2.149       .  S
Zn992       O993   1.935       .  S
O994       C1006   1.271       .  A
O995       C1007   1.268       .  A
O996       C1008   1.278       .  A
O1001      C1010   1.273       .  A
O1002      C1009   1.262       .  A
O1005      C1011   1.267       .  A
Zn1012     O1017   1.929   1_565  S
Zn1012     O1028   2.098       .  S
Zn1012     O1016   1.975       .  S
Zn1013     O1018   1.985       .  S
Zn1013     O1020   2.075       .  S
Zn1014     O1019   2.130       .  S
Zn1014     O1022   2.124       .  S
Zn1015     O1023   1.950       .  S
Zn1015     O1026   2.105       .  S
Zn1015     O1027   1.988       .  S
Zn1015     O1016   1.949       .  S
O1018      C1030   1.267       .  A
O1019      C1031   1.295       .  A
O1020      C1029   1.268       .  A
O1021      C1031   1.262       .  A
O1022      C1030   1.292       .  A
O1023      C1032   1.260       .  A
O1024      C1033   1.274       .  A
O1025      C1032   1.294       .  A
O1026      C1033   1.277       .  A
O1027      C1034   1.281       .  A
O1028      C1034   1.272       .  A
Zn1035     O1040   2.132       .  S
Zn1035     O1044   2.108       .  S
Zn1036     O1041   1.972   1_556  S
Zn1036     O1047   2.104       .  S
Zn1036     O1039   1.963       .  S
Zn1037     O1042   1.950       .  S
Zn1037     O1045   2.117       .  S
Zn1038     O1046   2.070       .  S
Zn1038     O1049   1.989       .  S
Zn1038     O1050   1.991       .  S
Zn1038     O1039   1.967       .  S
O1040      C1052   1.289       .  A
O1042      C1054   1.259       .  A
O1043      C1052   1.260       .  A
O1044      C1054   1.289       .  A
O1045      C1053   1.276       .  A
O1046      C1055   1.274       .  A
O1047      C1056   1.275       .  A
O1048      C1055   1.270       .  A
O1049      C1056   1.274       .  A
O1050      C1057   1.270       .  A
O1051      C1057   1.297       .  A
Zn1058     O1067   2.136       .  S
Zn1058     O1062   1.934       .  S
Zn1059     O1066   2.138       .  S
Zn1059     O1070   2.120       .  S
Zn1060     O1065   2.011       .  S
Zn1060     O1068   1.947       .  S
Zn1060     O1071   2.149       .  S
Zn1060     O1062   1.928       .  S
Zn1061     O1072   1.936       .  S
Zn1061     O1073   2.133       .  S
O1063      C1075   1.267       .  A
O1064      C1076   1.293       .  A
O1065      C1077   1.270       .  A
O1066      C1075   1.294       .  A
O1067      C1077   1.283       .  A
O1068      C1076   1.266       .  A
O1069      C1078   1.268       .  A
O1070      C1079   1.292       .  A
O1071      C1078   1.286       .  A
O1072      C1079   1.265       .  A
O1073      C1080   1.282       .  A
O1074      C1080   1.268       .  A
C1082      C1083   1.416       .  A
C1083      F1090   1.349       .  S
C1084      H1089   1.082       .  S
C1085      C1086   1.411       .  A
C1086      F1087   1.360       .  S
C1091      H1098   1.083       .  S
C1093      C1094   1.366       .  A
C1093      F1100   1.356       .  S
C1094      H1099   1.085       .  S
C1095      C1096   1.411       .  A
C1096      F1097   1.355       .  S
C1101      H1108   1.079       .  S
C1103      C1104   1.373       .  A
C1103      F1110   1.356       .  S
C1104      H1109   1.080       .  S
C1105      C1106   1.414   1_565  A
C1111      C1112   1.412       .  A
C1111      C1116   1.363       .  A
C1111      H1118   1.077       .  S
C1112      C1113   1.412       .  A
C1113      C1114   1.370       .  A
C1113      F1120   1.357       .  S
C1114      C1115   1.407       .  A
C1114      H1119   1.078       .  S
C1115      C1116   1.413       .  A
C1116      F1117   1.362       .  S
