geometry optimzed in LAMMPS
_audit_creation_date              2020-11-30 
_audit_creation_method            'lammps2cif' 
_symmetry_space_group_name_H-M    'P1' 
_symmetry_Int_Tables_number       1 
_symmetry_cell_setting            triclinic 
loop_ 
_symmetry_equiv_pos_as_xyz 
  x,y,z 
_cell_length_a                    24.35233207 
_cell_length_b                    24.15374660003165 
_cell_length_c                    24.37607530104507 
_cell_angle_alpha                 89.99933139365268 
_cell_angle_beta                  90.00542794507639 
_cell_angle_gamma                 90.00009275020625 
loop_ 
_atom_site_label 
_atom_site_type_symbol 
_atom_site_fract_x 
_atom_site_fract_y 
_atom_site_fract_z 
_atom_site_charge 
C1          C  0.32218779  0.33781118  0.17715031    -0.00200
C2          C  0.32217596  0.15453198  0.35588117    -0.00200
C3          C  0.14280840  0.15639563  0.17549013    -0.00200
C4          C  0.14278168  0.33593308  0.35744166    -0.00200
C5          C  0.32218149  0.15448153  0.67712190    -0.00200
C6          C  0.14279254  0.15639857  0.85747116    -0.00200
C7          C  0.14279574  0.33588002  0.67545833    -0.00200
C8          C  0.32219733  0.33781302  0.85577515    -0.00200
N9          N  0.41800148  0.43304338  0.91278786    -0.03900
N10         N  0.40535003  0.39745943  0.87362516    -0.56000
N11         N  0.37992235  0.55927721  0.95113339    -0.03500
N12         N  0.34074383  0.59495780  0.93877133    -0.58100
N13         N  0.41800330  0.55922150  0.91280117    -0.03100
N14         N  0.40534270  0.59480633  0.87364179    -0.55900
N15         N  0.37992285  0.43297395  0.95112169    -0.02800
N16         N  0.34075257  0.39728427  0.93875654    -0.58500
C17         C  0.35764572  0.37452232  0.89087948     0.98300
C18         C  0.35763215  0.61772977  0.89089824     0.98100
N19         N  0.41799582  0.55921824  0.12014568    -0.04000
N20         N  0.40533350  0.59479488  0.15931011    -0.56500
N21         N  0.37991752  0.43296880  0.08180910    -0.02200
N22         N  0.34074508  0.39728237  0.09416962    -0.57800
N23         N  0.41799788  0.43303619  0.12014818    -0.04100
N24         N  0.40534598  0.39745223  0.15930968    -0.56800
N25         N  0.37991210  0.55927520  0.08180991    -0.01800
N26         N  0.34072846  0.59494875  0.09417469    -0.57900
Mn27       Mn  0.37886800  0.49612253  0.01646735     1.18400
C28         C  0.35761698  0.61771484  0.14205439     1.00400
C29         C  0.35763890  0.37451819  0.14204968     1.01100
N30         N  0.54887421  0.55922021  0.91281460    -0.04100
N31         N  0.56151477  0.59484114  0.87368301    -0.60400
N32         N  0.58693969  0.43295085  0.95113703    -0.02900
N33         N  0.62608769  0.39722822  0.93880005    -0.61100
N34         N  0.54886233  0.43302593  0.91279643    -0.03600
N35         N  0.56149216  0.39741281  0.87365421    -0.60700
N36         N  0.58695619  0.55926688  0.95115056    -0.02500
N37         N  0.62611735  0.59497730  0.93882216    -0.61300
Mn38       Mn  0.48343653  0.49612974  0.91171628     1.10700
C39         C  0.60921471  0.61777707  0.89096360     1.01600
C40         C  0.60918170  0.37445206  0.89093070     1.01700
N41         N  0.54885360  0.43301941  0.12013713    -0.03600
N42         N  0.56147476  0.39738810  0.15926857    -0.59000
N43         N  0.58695022  0.55926498  0.08179922    -0.02900
N44         N  0.62610268  0.59498762  0.09412566    -0.55700
N45         N  0.54886892  0.55921745  0.12012915    -0.04200
N46         N  0.56150186  0.59485056  0.15925385    -0.58500
N47         N  0.58692855  0.43294683  0.08180189    -0.03200
N48         N  0.62606691  0.39720900  0.09413151    -0.55700
Mn49       Mn  0.48343291  0.49612526  0.12122460     1.20200
Mn50       Mn  0.58799946  0.49610506  0.01647394     1.10100
Cl51       Cl  0.48343292  0.49612096  0.01647045    -0.83700
C52         C  0.60915526  0.37441926  0.14198897     0.98600
C53         C  0.60919543  0.61779508  0.14197533     0.98400
C54         C  0.32215514  0.65441014  0.17715854    -0.00200
C55         C  0.14275284  0.83583268  0.17555002    -0.00200
C56         C  0.14273591  0.65626646  0.35745225    -0.00200
C57         C  0.32212370  0.83766533  0.35592190    -0.00200
N58         N  0.41792429  0.05916651  0.62016394    -0.03900
N59         N  0.40529767  0.09477493  0.65931060    -0.56000
N60         N  0.37981847  0.93293711  0.58180704    -0.03500
N61         N  0.34065209  0.89723396  0.59413911    -0.58100
N62         N  0.41790634  0.93297426  0.62013774    -0.03100
N63         N  0.40526424  0.89735308  0.65926877    -0.55900
N64         N  0.37984580  0.05924902  0.58182369    -0.02800
N65         N  0.34070072  0.09497119  0.59416609    -0.58500
C66         C  0.35760933  0.11773986  0.64203763     0.98300
C67         C  0.35755667  0.87442831  0.64199373     0.98100
N68         N  0.41789545  0.93298570  0.41282989    -0.04000
N69         N  0.40526323  0.89734516  0.37371187    -0.56500
N70         N  0.37983851  0.05926234  0.45115580    -0.02200
N71         N  0.34070091  0.09500166  0.43882701    -0.57800
N72         N  0.41791095  0.05918684  0.41281744    -0.04100
N73         N  0.40528847  0.09481782  0.37368595    -0.56800
N74         N  0.37981652  0.93294108  0.45116209    -0.01800
N75         N  0.34066630  0.89721291  0.43884404    -0.57900
Mn76       Mn  0.37877432  0.99610080  0.51648530     1.18400
C77         C  0.35757269  0.87439897  0.39099743     1.00400
C78         C  0.35760998  0.11778973  0.39096706     1.01100
N79         N  0.54878411  0.93297187  0.62014334    -0.04100
N80         N  0.56144829  0.89738262  0.65929840    -0.60400
N81         N  0.58685117  0.05923064  0.58182513    -0.02900
N82         N  0.62601601  0.09492739  0.59418681    -0.61100
N83         N  0.54877753  0.05915231  0.62016348    -0.03600
N84         N  0.56142625  0.09473748  0.65932584    -0.60700
N85         N  0.58686459  0.93292478  0.58181135    -0.02500
N86         N  0.62604731  0.89724574  0.59416905    -0.61300
Mn87       Mn  0.48334721  0.99606243  0.62123588     1.10700
C88         C  0.60916133  0.87446558  0.64203957     1.01600
C89         C  0.60912339  0.11768480  0.64206653     1.01700
N90         N  0.54876573  0.05916793  0.41279824    -0.03600
N91         N  0.56141714  0.09474549  0.37363123    -0.59000
N92         N  0.58685612  0.93293491  0.45113790    -0.02900
N93         N  0.62603981  0.89726314  0.43877339    -0.55700
N94         N  0.54876874  0.93298784  0.41280567    -0.04200
N95         N  0.56142915  0.89740834  0.37364304    -0.58500
N96         N  0.58684872  0.05923718  0.45113488    -0.03200
N97         N  0.62602330  0.09491864  0.43876611    -0.55700
Mn98       Mn  0.48333091  0.99607929  0.41172808     1.20200
Mn99       Mn  0.58790597  0.99608434  0.51647849     1.10100
Cl100      Cl  0.48334089  0.99608133  0.51648201    -0.83700
C101        C  0.60912779  0.11767738  0.39088439     0.98600
C102        C  0.60914808  0.87449255  0.39089756     0.98400
C103        C  0.64461035  0.33770397  0.85585013    -0.00200
C104        C  0.82398561  0.33577856  0.67547174    -0.00200
C105        C  0.64457362  0.15438937  0.67717274    -0.00200
C106        C  0.82397301  0.15627351  0.85747425    -0.00200
C107        C  0.32216651  0.65441912  0.85579274    -0.00200
C108        C  0.32211073  0.83769600  0.67706957    -0.00200
C109        C  0.14274750  0.65626516  0.67550270    -0.00200
C110        C  0.14273607  0.83580832  0.85743582    -0.00200
C111        C  0.64460980  0.83779621  0.35579780    -0.00200
C112        C  0.82399546  0.65637274  0.35744939    -0.00200
C113        C  0.64464201  0.65452488  0.17705733    -0.00200
C114        C  0.82405076  0.83592299  0.17553423    -0.00200
C115        C  0.64466316  0.65450301  0.85588464    -0.00200
C116        C  0.82401789  0.65633908  0.67551921    -0.00200
C117        C  0.64462830  0.83776931  0.67714043    -0.00200
C118        C  0.82404953  0.83590185  0.85744440    -0.00200
N119        N  0.04620286  0.89201403  0.08153054    -0.03900
N120        N  0.08260870  0.85327168  0.09326862    -0.56000
N121        N  0.92073136  0.93051731  0.11971557    -0.03500
N122        N  0.88440101  0.91869931  0.15817198    -0.58100
N123        N  0.92065180  0.89203023  0.08153078    -0.03100
N124        N  0.88421407  0.85331596  0.09326016    -0.55900
N125        N  0.04615200  0.93050653  0.11971125    -0.02800
N126        N  0.08247104  0.91865965  0.15817608    -0.58500
C127        C  0.10583152  0.87100246  0.14058711     0.98300
C128        C  0.86100304  0.87106278  0.14057665     0.98100
N129        N  0.92063854  0.10021556  0.08151733    -0.04000
N130        N  0.88417629  0.13891144  0.09322829    -0.56500
N131        N  0.04615073  0.06175347  0.11970026    -0.02200
N132        N  0.08249341  0.07358781  0.15814672    -0.57800
N133        N  0.04619757  0.10024402  0.08151749    -0.04100
N134        N  0.08262453  0.13897308  0.09323474    -0.56800
N135        N  0.92072160  0.06173017  0.11970471    -0.01800
N136        N  0.88436957  0.07353140  0.15814482    -0.57900
Mn137      Mn  0.98344405  0.99612849  0.12097385     1.18400
C138        C  0.86095419  0.12115458  0.14053634     1.00400
C139        C  0.10586404  0.12123498  0.14054298     1.01100
N140        N  0.92065395  0.89202572  0.95144699    -0.04100
N141        N  0.88421732  0.85330928  0.93971965    -0.60400
N142        N  0.04615395  0.93049681  0.91327566    -0.02900
N143        N  0.08246397  0.91864288  0.87481060    -0.61100
N144        N  0.04620365  0.89200392  0.95145666    -0.03600
N145        N  0.08259996  0.85325356  0.93971792    -0.60700
N146        N  0.92073396  0.93050678  0.91325456    -0.02500
N147        N  0.88440487  0.91868030  0.87479368    -0.61300
Mn148      Mn  0.98342649  0.89070904  0.01649175     1.10700
C149        C  0.86100768  0.87104614  0.89239499     1.01600
C150        C  0.10581808  0.87097998  0.89239808     1.01700
N151        N  0.04619835  0.10024593  0.95145390    -0.03600
N152        N  0.08261741  0.13897954  0.93973089    -0.59000
N153        N  0.92072304  0.06172525  0.91325716    -0.02900
N154        N  0.88436818  0.07352679  0.87481296    -0.55700
N155        N  0.92063889  0.10020907  0.95144525    -0.04200
N156        N  0.88417286  0.13890235  0.93973291    -0.58500
N157        N  0.04615212  0.06175004  0.91327603    -0.03200
N158        N  0.08248646  0.07358661  0.87482903    -0.55700
Mn159      Mn  0.98341669  0.10154202  0.01648350     1.20200
Mn160      Mn  0.98344618  0.99612157  0.91200031     1.10100
Cl161      Cl  0.98343678  0.99612483  0.01648706    -0.83700
C162        C  0.10585271  0.12124039  0.89242446     0.98600
C163        C  0.86095040  0.12114718  0.89242158     0.98400
C164        C  0.64457604  0.15438249  0.35577913    -0.00200
C165        C  0.82398345  0.15628262  0.17548374    -0.00200
C166        C  0.64458949  0.33767880  0.17707324    -0.00200
C167        C  0.82396038  0.33580462  0.35744775    -0.00200
N168        N  0.04611405  0.60016154  0.45143252    -0.03900
N169        N  0.08256433  0.63886755  0.43971636    -0.56000
N170        N  0.92060344  0.56169379  0.41326311    -0.03500
N171        N  0.88427503  0.57354299  0.37480821    -0.58100
N172        N  0.92056022  0.60018221  0.45144723    -0.03100
N173        N  0.88415066  0.63892513  0.43972137    -0.55900
N174        N  0.04602805  0.56168268  0.41323963    -0.02800
N175        N  0.08236553  0.57349889  0.37478987    -0.58500
C176        C  0.10577578  0.62112469  0.39239891     0.98300
C177        C  0.86091691  0.62119782  0.39240673     0.98100
N178        N  0.92056603  0.39195092  0.45142925    -0.04000
N179        N  0.88414429  0.35321847  0.43970569    -0.56500
N180        N  0.04603466  0.43047101  0.41323055    -0.02200
N181        N  0.08238536  0.41867709  0.37478648    -0.57800
N182        N  0.04612409  0.39198263  0.45141436    -0.04100
N183        N  0.08258966  0.35329182  0.43969843    -0.56800
N184        N  0.92060630  0.43044827  0.41325339    -0.01800
N185        N  0.88426400  0.41861640  0.37480627    -0.57900
Mn186      Mn  0.98331231  0.49607316  0.41197985     1.18400
C187        C  0.86090075  0.37096248  0.39240146     1.00400
C188        C  0.10580688  0.37105478  0.39239041     1.01100
N189        N  0.92057753  0.60017023  0.58151390    -0.04100
N190        N  0.88416696  0.63890862  0.59324716    -0.60400
N191        N  0.04605770  0.56166561  0.61969583    -0.02900
N192        N  0.08239639  0.57348549  0.65814966    -0.61100
N193        N  0.04612981  0.60015183  0.58150910    -0.03600
N194        N  0.08257055  0.63886608  0.59323346    -0.60700
N195        N  0.92063317  0.56167645  0.61969361    -0.02500
N196        N  0.88431402  0.57351847  0.65815384    -0.61300
Mn197      Mn  0.98334702  0.60147676  0.51647556     1.10700
C198        C  0.86094748  0.62117453  0.64056258     1.01600
C199        C  0.10579109  0.62112146  0.64054945     1.01700
N200        N  0.04614116  0.39196657  0.58148807    -0.03600
N201        N  0.08259988  0.35326511  0.59319852    -0.59000
N202        N  0.92063683  0.43042385  0.61967923    -0.02900
N203        N  0.88430491  0.41858500  0.65812773    -0.55700
N204        N  0.92058333  0.39193525  0.58149467    -0.04200
N205        N  0.88416038  0.35320342  0.59321410    -0.58500
N206        N  0.04606447  0.43044771  0.61967880    -0.03200
N207        N  0.08241748  0.41863744  0.65812159    -0.55700
Mn208      Mn  0.98335518  0.39064516  0.51645632     1.20200
Mn209      Mn  0.98334345  0.49605203  0.62095343     1.10100
Cl210      Cl  0.98333610  0.49606171  0.51646662    -0.83700
C211        C  0.10582613  0.37101367  0.64051064     0.98600
C212        C  0.86093193  0.37093685  0.64052552     0.96800
C213        C  0.67980824  0.37055538  0.21373816    -0.16200
C214        C  0.71297598  0.38429724  0.24795691     0.07800
C215        C  0.75364848  0.38371889  0.28925037     0.09700
C216        C  0.78734574  0.36919489  0.32261004    -0.17100
C217        C  0.68109372  0.30242076  0.14404326    -0.16200
C218        C  0.71500517  0.26907213  0.12955113     0.07800
C219        C  0.75580367  0.22762016  0.12892588     0.09700
C220        C  0.78886864  0.19309397  0.14263829    -0.17100
C221        C  0.85640748  0.30026843  0.32076501    -0.16200
C222        C  0.87052883  0.26664156  0.28699008     0.07800
C223        C  0.87052720  0.22542594  0.24598925     0.09700
C224        C  0.85640930  0.19180871  0.21220078    -0.17100
C225        C  0.61200982  0.19148864  0.32064626    -0.16200
C226        C  0.59831638  0.22547787  0.28700952     0.07800
C227        C  0.59831804  0.26655724  0.24579804     0.09700
C228        C  0.61201539  0.30055639  0.21217526    -0.17100
C229        C  0.78883552  0.29900080  0.39028390    -0.16200
C230        C  0.75576640  0.26447170  0.40397201     0.07800
C231        C  0.71497430  0.22301397  0.40331264     0.09700
C232        C  0.68107403  0.18965859  0.38880331    -0.17100
C233        C  0.67980152  0.12148662  0.31913825    -0.16200
C234        C  0.71297564  0.10775246  0.28492465     0.07800
C235        C  0.75365276  0.10834166  0.24363723     0.09700
C236        C  0.78735701  0.12287139  0.21028974    -0.17100
C237        C  0.67985250  0.87067598  0.71377765    -0.16200
C238        C  0.71302869  0.88441820  0.74799118     0.07800
C239        C  0.75371058  0.88383172  0.78927953     0.09700
C240        C  0.78741838  0.86930246  0.82262883    -0.17100
C241        C  0.78889539  0.69315163  0.64268171    -0.16200
C242        C  0.75582933  0.72768435  0.62898569     0.07800
C243        C  0.71503566  0.76914243  0.62962685     0.09700
C244        C  0.68112932  0.80249671  0.64412037    -0.17100
C245        C  0.85647351  0.69187157  0.71220674    -0.16200
C246        C  0.87059421  0.72550687  0.74597799     0.07800
C247        C  0.87059379  0.76673906  0.78696483     0.09700
C248        C  0.85647928  0.80037010  0.82074010    -0.17100
C249        C  0.61209597  0.69162615  0.82077374    -0.16200
C250        C  0.59839520  0.72561674  0.78714278     0.07800
C251        C  0.59838800  0.76668209  0.74592008     0.09700
C252        C  0.61207621  0.80066245  0.71227676    -0.17100
C253        C  0.78739935  0.62295533  0.71035390    -0.16200
C254        C  0.75370268  0.60844185  0.74371346     0.07800
C255        C  0.71303713  0.60787246  0.78500806     0.09700
C256        C  0.67987616  0.62161776  0.81922695    -0.17100
C257        C  0.68117293  0.68975944  0.88891786    -0.16200
C258        C  0.71508724  0.72311086  0.90340386     0.07800
C259        C  0.75588266  0.76456654  0.90401530     0.09700
C260        C  0.78894038  0.79909290  0.89029239    -0.17100
C261        C  0.78893181  0.79911210  0.14269232    -0.16200
C262        C  0.75586763  0.76459030  0.12896654     0.07800
C263        C  0.71506634  0.72313942  0.12956176     0.09700
C264        C  0.68114862  0.68978660  0.14403169    -0.17100
C265        C  0.67986046  0.62163857  0.21371388    -0.16200
C266        C  0.71302867  0.60789356  0.24793089     0.07800
C267        C  0.75369735  0.60847266  0.28922740     0.09700
C268        C  0.78738752  0.62299479  0.32259422    -0.17100
C269        C  0.85648988  0.80039513  0.21224059    -0.16200
C270        C  0.87060585  0.76677123  0.24602468     0.07800
C271        C  0.87059497  0.72554671  0.28701902     0.09700
C272        C  0.85645957  0.69191375  0.32078416    -0.17100
C273        C  0.61205558  0.80069868  0.32064771    -0.16200
C274        C  0.59836939  0.76671430  0.28700505     0.07800
C275        C  0.59837732  0.72563935  0.24579176     0.09700
C276        C  0.61207592  0.69164419  0.21216744    -0.17100
C277        C  0.67984882  0.87070028  0.31917633    -0.16200
C278        C  0.71303601  0.88443819  0.28497683     0.07800
C279        C  0.75372311  0.88385135  0.24369944     0.09700
C280        C  0.78742847  0.86932507  0.21035183    -0.17100
C281        C  0.68109794  0.80251155  0.38882567    -0.16200
C282        C  0.71499818  0.76915266  0.40332864     0.07800
C283        C  0.75579291  0.72769675  0.40397724     0.09700
C284        C  0.78886468  0.69317197  0.39028404    -0.17100
C285        C  0.11027371  0.80026893  0.82076069    -0.16200
C286        C  0.09616174  0.76663134  0.78698766     0.07800
C287        C  0.09618310  0.72540639  0.74599317     0.09700
C288        C  0.11031264  0.69178721  0.71221267    -0.17100
C289        C  0.28561785  0.80242425  0.64403335    -0.16200
C290        C  0.25170917  0.76906537  0.62954977     0.07800
C291        C  0.21091421  0.72760822  0.62893998     0.09700
C292        C  0.17785505  0.69308145  0.64265971    -0.17100
C293        C  0.28687832  0.87057144  0.71371797    -0.16200
C294        C  0.25370402  0.88429907  0.74793127     0.07800
C295        C  0.21303510  0.88370919  0.78922289     0.09700
C296        C  0.17934508  0.86918804  0.82258637    -0.17100
C297        C  0.17938144  0.62286270  0.71031235    -0.16200
C298        C  0.21309427  0.60833354  0.74365603     0.07800
C299        C  0.25378103  0.60775380  0.78493892     0.09700
C300        C  0.28695483  0.62150535  0.81915020    -0.17100
C301        C  0.17786820  0.79900283  0.89026972    -0.16200
C302        C  0.21094128  0.76447575  0.90395972     0.07800
C303        C  0.25174204  0.72302612  0.90330894     0.09700
C304        C  0.28565427  0.68968124  0.88880952    -0.17100
C305        C  0.35471780  0.69153440  0.82066583    -0.16200
C306        C  0.36840456  0.72552432  0.78703189     0.07800
C307        C  0.36839121  0.76659797  0.74581801     0.09700
C308        C  0.35468326  0.80058647  0.71218918    -0.17100
C309        C  0.67977747  0.12148644  0.71383303    -0.16200
C310        C  0.71293883  0.10773844  0.74805763     0.07800
C311        C  0.75361596  0.10832057  0.78934967     0.09700
C312        C  0.78732992  0.12285632  0.82268940    -0.17100
C313        C  0.78886887  0.29896747  0.64262922    -0.16200
C314        C  0.75579852  0.26443300  0.62895091     0.07800
C315        C  0.71499994  0.22298212  0.62963132     0.09700
C316        C  0.68109057  0.18964364  0.64415198    -0.17100
C317        C  0.85639155  0.19178371  0.82074066    -0.16200
C318        C  0.87051390  0.22539477  0.78694950     0.07800
C319        C  0.87053267  0.26661244  0.74594924     0.09700
C320        C  0.85642655  0.30024433  0.71216916    -0.17100
C321        C  0.61201175  0.19151153  0.71228590    -0.16200
C322        C  0.59831998  0.22550202  0.74591918     0.07800
C323        C  0.59832381  0.26657715  0.78713433     0.09700
C324        C  0.61202598  0.30057550  0.82075771    -0.17100
C325        C  0.68112004  0.30244880  0.88888652    -0.16200
C326        C  0.71503037  0.26909820  0.90338472     0.07800
C327        C  0.75582187  0.22763821  0.90401948     0.09700
C328        C  0.78887635  0.19310109  0.89031482    -0.17100
C329        C  0.67982560  0.37056466  0.81917026    -0.16200
C330        C  0.71298974  0.38428192  0.78494149     0.07800
C331        C  0.75365846  0.38368807  0.74364854     0.09700
C332        C  0.78735973  0.36916638  0.71029604    -0.17100
C333        C  0.28562859  0.80239865  0.38895496    -0.16200
C334        C  0.25171489  0.76904490  0.40343322     0.07800
C335        C  0.21091369  0.72759409  0.40403330     0.09700
C336        C  0.17785009  0.69307331  0.39030420    -0.17100
C337        C  0.11029043  0.80029523  0.21222001    -0.16200
C338        C  0.09616643  0.76665840  0.24598545     0.07800
C339        C  0.09617420  0.72542715  0.28697248     0.09700
C340        C  0.11030041  0.69179891  0.32074825    -0.17100
C341        C  0.28689409  0.87055095  0.31927576    -0.16200
C342        C  0.25372278  0.88430143  0.28506397     0.07800
C343        C  0.21305295  0.88373147  0.24376849     0.09700
C344        C  0.17936162  0.86921345  0.21040128    -0.17100
C345        C  0.35471065  0.69151782  0.21229765    -0.16200
C346        C  0.36839422  0.72550221  0.24594212     0.07800
C347        C  0.36838367  0.76656762  0.28716543     0.09700
C348        C  0.35468609  0.80055307  0.32080027    -0.17100
C349        C  0.17936393  0.62286929  0.32263554    -0.16200
C350        C  0.21307220  0.60834947  0.28928729     0.07800
C351        C  0.25375456  0.60776703  0.24800444     0.09700
C352        C  0.28693172  0.62150481  0.21379474    -0.17100
C353        C  0.17788168  0.79902815  0.14271866    -0.16200
C354        C  0.21094844  0.76450086  0.12901887     0.07800
C355        C  0.25174250  0.72304337  0.12965033     0.09700
C356        C  0.28565056  0.68968571  0.14413831    -0.17100
C357        C  0.17943107  0.36929284  0.71025690    -0.16200
C358        C  0.21314021  0.38383635  0.74359750     0.07800
C359        C  0.25382034  0.38443899  0.78488703     0.09700
C360        C  0.28698901  0.37070752  0.81911164    -0.17100
C361        C  0.28568214  0.30255559  0.88879553    -0.16200
C362        C  0.25177201  0.26921361  0.90330762     0.07800
C363        C  0.21097445  0.22776028  0.90398037     0.09700
C364        C  0.17790644  0.19322208  0.89030462    -0.17100
C365        C  0.11034502  0.19191845  0.82076573    -0.16200
C366        C  0.09623284  0.22553882  0.78697649     0.07800
C367        C  0.09624780  0.26674887  0.74596862     0.09700
C368        C  0.11037132  0.30036111  0.71217909    -0.17100
C369        C  0.35476373  0.19160836  0.71221690    -0.16200
C370        C  0.36846367  0.22561117  0.74583637     0.07800
C371        C  0.36846203  0.26669563  0.78704182     0.09700
C372        C  0.35476414  0.30069131  0.82066649    -0.17100
C373        C  0.28567333  0.18973606  0.64408501    -0.16200
C374        C  0.25176302  0.22308023  0.62957380     0.07800
C375        C  0.21096490  0.26453175  0.62892149     0.09700
C376        C  0.17790117  0.29906220  0.64261822    -0.17100
C377        C  0.28696612  0.12161483  0.71379560    -0.16200
C378        C  0.25379889  0.10789112  0.74801809     0.07800
C379        C  0.21312515  0.10848295  0.78930551     0.09700
C380        C  0.17942145  0.12300766  0.82265342    -0.17100
C381        C  0.11035936  0.30040655  0.32072292    -0.16200
C382        C  0.09624266  0.26678616  0.28693700     0.07800
C383        C  0.09624182  0.22556496  0.24594234     0.09700
C384        C  0.11036314  0.19193409  0.21217194    -0.17100
C385        C  0.17789712  0.29912220  0.39028764    -0.16200
C386        C  0.21096078  0.26459730  0.40400620     0.07800
C387        C  0.25175912  0.22314432  0.40339245     0.09700
C388        C  0.28567138  0.18979289  0.38890869    -0.17100
C389        C  0.28695695  0.12165708  0.31921456    -0.16200
C390        C  0.25379274  0.10791739  0.28499071     0.07800
C391        C  0.21312489  0.10849280  0.24369145     0.09700
C392        C  0.17942775  0.12301036  0.21032864    -0.17100
C393        C  0.35475066  0.30070118  0.21228300    -0.16200
C394        C  0.36844328  0.26671584  0.24592461     0.07800
C395        C  0.36844464  0.22564571  0.28714614     0.09700
C396        C  0.35475071  0.19165264  0.32077682    -0.17100
C397        C  0.28696419  0.37070804  0.21379178    -0.16200
C398        C  0.25379245  0.38444959  0.24800462     0.07800
C399        C  0.21311481  0.38387176  0.28929158     0.09700
C400        C  0.17940806  0.36934735  0.32263870    -0.17100
C401        C  0.17792794  0.19319855  0.14264742    -0.16200
C402        C  0.21099402  0.22772884  0.12895432     0.07800
C403        C  0.25178592  0.26918689  0.12961165     0.09700
C404        C  0.28568791  0.30253999  0.14412246    -0.17100
loop_ 
_geom_bond_atom_site_label_1 
_geom_bond_atom_site_label_2 
_geom_bond_distance 
_geom_bond_site_symmetry_2 
_ccdc_geom_bond_type 
C1           C29   1.505       .  S
C1          C393   1.472       .  S
C1          C397   1.471       .  S
C1          C404   1.471       .  S
C2           C78   1.504       .  S
C2          C388   1.471       .  S
C2          C389   1.471       .  S
C2          C396   1.472       .  S
C3          C139   1.502       .  S
C3          C384   1.470       .  S
C3          C392   1.472       .  S
C3          C401   1.471       .  S
C4          C188   1.502       .  S
C4          C381   1.470       .  S
C4          C385   1.471       .  S
C4          C400   1.472       .  S
C5           C66   1.504       .  S
C5          C369   1.472       .  S
C5          C373   1.471       .  S
C5          C377   1.471       .  S
C6          C162   1.502       .  S
C6          C364   1.471       .  S
C6          C365   1.470       .  S
C6          C380   1.472       .  S
C7          C211   1.502       .  S
C7          C357   1.472       .  S
C7          C368   1.470       .  S
C7          C376   1.471       .  S
C8           C17   1.504       .  S
C8          C360   1.471       .  S
C8          C361   1.471       .  S
C8          C372   1.472       .  S
N9           N10   1.321       .  A
N9           N15   1.317       .  A
N9          Mn38   2.205       .  S
N10          C17   1.354       .  A
N11          N13   1.317       .  A
N11          N12   1.321       .  A
N11         Mn27   2.205   1_556  S
N12          C18   1.354       .  A
N13          N14   1.321       .  A
N13         Mn38   2.205       .  S
N14          C18   1.354       .  A
N15          N16   1.321       .  A
N15         Mn27   2.206   1_556  S
N16          C17   1.354       .  A
C18         C107   1.504       .  S
N19          N25   1.317       .  A
N19          N20   1.321       .  A
N19         Mn49   2.205       .  S
N20          C28   1.354       .  A
N21          N22   1.321       .  A
N21          N23   1.317       .  A
N21         Mn27   2.206       .  S
N22          C29   1.354       .  A
N23          N24   1.321       .  A
N23         Mn49   2.205       .  S
N24          C29   1.354       .  A
N25          N26   1.321       .  A
N25         Mn27   2.206       .  S
N26          C28   1.354       .  A
Mn27        Cl51   2.546       .  S
C28          C54   1.505       .  S
N30          N31   1.321       .  A
N30          N36   1.316       .  A
N30         Mn38   2.205       .  S
N31          C39   1.354       .  A
N32          N34   1.316       .  A
N32          N33   1.321       .  A
N32         Mn50   2.205   1_556  S
N33          C40   1.354       .  A
N34          N35   1.321       .  A
N34         Mn38   2.205       .  S
N35          C40   1.354       .  A
N36          N37   1.321       .  A
N36         Mn50   2.205   1_556  S
N37          C39   1.354       .  A
Mn38        Cl51   2.553   1_556  S
C39         C115   1.504       .  S
C40         C103   1.505       .  S
N41          N42   1.321       .  A
N41          N47   1.316       .  A
N41         Mn49   2.205       .  S
N42          C52   1.354       .  A
N43          N44   1.321       .  A
N43          N45   1.316       .  A
N43         Mn50   2.205       .  S
N44          C53   1.354       .  A
N45          N46   1.321       .  A
N45         Mn49   2.205       .  S
N46          C53   1.354       .  A
N47          N48   1.321       .  A
N47         Mn50   2.205       .  S
N48          C52   1.354       .  A
Mn49        Cl51   2.553       .  S
Mn50        Cl51   2.546       .  S
C52         C166   1.504       .  S
C53         C113   1.504       .  S
C54         C345   1.472       .  S
C54         C352   1.471       .  S
C54         C356   1.471       .  S
C55         C127   1.502       .  S
C55         C337   1.470       .  S
C55         C344   1.472       .  S
C55         C353   1.471       .  S
C56         C176   1.502       .  S
C56         C336   1.471       .  S
C56         C340   1.470       .  S
C56         C349   1.472       .  S
C57          C77   1.504       .  S
C57         C333   1.471       .  S
C57         C341   1.471       .  S
C57         C348   1.472       .  S
N58          N59   1.321       .  A
N58          N64   1.317       .  A
N58         Mn87   2.205   1_545  S
N59          C66   1.354       .  A
N60          N62   1.316       .  A
N60          N61   1.321       .  A
N60         Mn76   2.205       .  S
N61          C67   1.354       .  A
N62          N63   1.321       .  A
N62         Mn87   2.205       .  S
N63          C67   1.354       .  A
N64          N65   1.321       .  A
N64         Mn76   2.205   1_545  S
N65          C66   1.354       .  A
C67         C108   1.504       .  S
N68          N74   1.316       .  A
N68          N69   1.321       .  A
N68         Mn98   2.205       .  S
N69          C77   1.354       .  A
N70          N71   1.321       .  A
N70          N72   1.316       .  A
N70         Mn76   2.205   1_545  S
N71          C78   1.354       .  A
N72          N73   1.321       .  A
N72         Mn98   2.205   1_545  S
N73          C78   1.354       .  A
N74          N75   1.321       .  A
N74         Mn76   2.205       .  S
N75          C77   1.354       .  A
Mn76       Cl100   2.546       .  S
N79          N80   1.321       .  A
N79          N85   1.317       .  A
N79         Mn87   2.205       .  S
N80          C88   1.354       .  A
N81          N83   1.317       .  A
N81          N82   1.321       .  A
N81         Mn99   2.206   1_545  S
N82          C89   1.354       .  A
N83          N84   1.321       .  A
N83         Mn87   2.205   1_545  S
N84          C89   1.354       .  A
N85          N86   1.321       .  A
N85         Mn99   2.205       .  S
N86          C88   1.354       .  A
Mn87       Cl100   2.553       .  S
C88         C117   1.505       .  S
C89         C105   1.504       .  S
N90          N91   1.321       .  A
N90          N96   1.317       .  A
N90         Mn98   2.205   1_545  S
N91         C101   1.354       .  A
N92          N93   1.321       .  A
N92          N94   1.317       .  A
N92         Mn99   2.205       .  S
N93         C102   1.354       .  A
N94          N95   1.321       .  A
N94         Mn98   2.205       .  S
N95         C102   1.354       .  A
N96          N97   1.321       .  A
N96         Mn99   2.206   1_545  S
N97         C101   1.354       .  A
Mn98       Cl100   2.553       .  S
Mn99       Cl100   2.546       .  S
C101        C164   1.505       .  S
C102        C111   1.505       .  S
C103        C324   1.472       .  S
C103        C325   1.471       .  S
C103        C329   1.471       .  S
C104        C212   1.502       .  S
C104        C313   1.471       .  S
C104        C320   1.470       .  S
C104        C332   1.472       .  S
C105        C309   1.471       .  S
C105        C316   1.471       .  S
C105        C321   1.472       .  S
C106        C163   1.502       .  S
C106        C312   1.472       .  S
C106        C317   1.470       .  S
C106        C328   1.471       .  S
C107        C300   1.471       .  S
C107        C304   1.471       .  S
C107        C305   1.472       .  S
C108        C289   1.471       .  S
C108        C293   1.471       .  S
C108        C308   1.472       .  S
C109        C199   1.502       .  S
C109        C288   1.470       .  S
C109        C292   1.471       .  S
C109        C297   1.472       .  S
C110        C150   1.502       .  S
C110        C285   1.470       .  S
C110        C296   1.472       .  S
C110        C301   1.471       .  S
C111        C273   1.472       .  S
C111        C277   1.471       .  S
C111        C281   1.471       .  S
C112        C177   1.502       .  S
C112        C268   1.472       .  S
C112        C272   1.470       .  S
C112        C284   1.471       .  S
C113        C264   1.471       .  S
C113        C265   1.471       .  S
C113        C276   1.472       .  S
C114        C128   1.502       .  S
C114        C261   1.471       .  S
C114        C269   1.470       .  S
C114        C280   1.472       .  S
C115        C249   1.472       .  S
C115        C256   1.471       .  S
C115        C257   1.471       .  S
C116        C198   1.502       .  S
C116        C241   1.471       .  S
C116        C245   1.470       .  S
C116        C253   1.472       .  S
C117        C237   1.471       .  S
C117        C244   1.471       .  S
C117        C252   1.472       .  S
C118        C149   1.502       .  S
C118        C240   1.472       .  S
C118        C248   1.470       .  S
C118        C260   1.471       .  S
N119        N120   1.320       .  A
N119        N125   1.316       .  A
N119       Mn148   2.203   1_455  S
N120        C127   1.354       .  A
N121        N123   1.316       .  A
N121        N122   1.320       .  A
N121       Mn137   2.201       .  S
N122        C128   1.354       .  A
N123        N124   1.320       .  A
N123       Mn148   2.203       .  S
N124        C128   1.354       .  A
N125        N126   1.320       .  A
N125       Mn137   2.201   1_455  S
N126        C127   1.354       .  A
N129        N135   1.316       .  A
N129        N130   1.320       .  A
N129       Mn159   2.203       .  S
N130        C138   1.354       .  A
N131        N132   1.320       .  A
N131        N133   1.316       .  A
N131       Mn137   2.201   1_445  S
N132        C139   1.354       .  A
N133        N134   1.320       .  A
N133       Mn159   2.203   1_455  S
N134        C139   1.354       .  A
N135        N136   1.320       .  A
N135       Mn137   2.201   1_545  S
N136        C138   1.354       .  A
Mn137      Cl161   2.547       .  S
C138        C165   1.502       .  S
N140        N141   1.320       .  A
N140        N146   1.316       .  A
N140       Mn148   2.203   1_556  S
N141        C149   1.354       .  A
N142        N144   1.316       .  A
N142        N143   1.320       .  A
N142       Mn160   2.201   1_455  S
N143        C150   1.354       .  A
N144        N145   1.320       .  A
N144       Mn148   2.203   1_456  S
N145        C150   1.354       .  A
N146        N147   1.320       .  A
N146       Mn160   2.201       .  S
N147        C149   1.354       .  A
Mn148      Cl161   2.546       .  S
N151        N152   1.320       .  A
N151        N157   1.316       .  A
N151       Mn159   2.203   1_456  S
N152        C162   1.354       .  A
N153        N154   1.320       .  A
N153        N155   1.316       .  A
N153       Mn160   2.201   1_545  S
N154        C163   1.354       .  A
N155        N156   1.320       .  A
N155       Mn159   2.203   1_556  S
N156        C163   1.354       .  A
N157        N158   1.320       .  A
N157       Mn160   2.201   1_445  S
N158        C162   1.354       .  A
Mn159      Cl161   2.546   1_545  S
Mn160      Cl161   2.547   1_556  S
C164        C225   1.472       .  S
C164        C232   1.471       .  S
C164        C233   1.471       .  S
C165        C220   1.471       .  S
C165        C224   1.470       .  S
C165        C236   1.472       .  S
C166        C213   1.471       .  S
C166        C217   1.471       .  S
C166        C228   1.472       .  S
C167        C187   1.502       .  S
C167        C216   1.472       .  S
C167        C221   1.470       .  S
C167        C229   1.471       .  S
N168        N169   1.320       .  A
N168        N174   1.316       .  A
N168       Mn197   2.203   1_455  S
N169        C176   1.354       .  A
N170        N172   1.316       .  A
N170        N171   1.320       .  A
N170       Mn186   2.201       .  S
N171        C177   1.354       .  A
N172        N173   1.320       .  A
N172       Mn197   2.203       .  S
N173        C177   1.354       .  A
N174        N175   1.320       .  A
N174       Mn186   2.201   1_455  S
N175        C176   1.354       .  A
N178        N184   1.316       .  A
N178        N179   1.320       .  A
N178       Mn208   2.203       .  S
N179        C187   1.354       .  A
N180        N181   1.320       .  A
N180        N182   1.316       .  A
N180       Mn186   2.201   1_455  S
N181        C188   1.354       .  A
N182        N183   1.320       .  A
N182       Mn208   2.203   1_455  S
N183        C188   1.354       .  A
N184        N185   1.320       .  A
N184       Mn186   2.201       .  S
N185        C187   1.354       .  A
Mn186      Cl210   2.547       .  S
N189        N190   1.320       .  A
N189        N195   1.316       .  A
N189       Mn197   2.203       .  S
N190        C198   1.354       .  A
N191        N193   1.316       .  A
N191        N192   1.320       .  A
N191       Mn209   2.201   1_455  S
N192        C199   1.354       .  A
N193        N194   1.320       .  A
N193       Mn197   2.203   1_455  S
N194        C199   1.354       .  A
N195        N196   1.320       .  A
N195       Mn209   2.201       .  S
N196        C198   1.354       .  A
Mn197      Cl210   2.546       .  S
N200        N201   1.320       .  A
N200        N206   1.316       .  A
N200       Mn208   2.203   1_455  S
N201        C211   1.354       .  A
N202        N203   1.320       .  A
N202        N204   1.316       .  A
N202       Mn209   2.201       .  S
N203        C212   1.354       .  A
N204        N205   1.320       .  A
N204       Mn208   2.203       .  S
N205        C212   1.354       .  A
N206        N207   1.320       .  A
N206       Mn209   2.201   1_455  S
N207        C211   1.354       .  A
Mn208      Cl210   2.546       .  S
Mn209      Cl210   2.547       .  S
C213        C214   1.208       .  T
C214        C215   1.412       .  S
C215        C216   1.207       .  T
C217        C218   1.207       .  T
C218        C219   1.411       .  S
C219        C220   1.206       .  T
C221        C222   1.207       .  T
C222        C223   1.411       .  S
C223        C224   1.207       .  T
C225        C226   1.207       .  T
C226        C227   1.412       .  S
C227        C228   1.207       .  T
C229        C230   1.206       .  T
C230        C231   1.411       .  S
C231        C232   1.207       .  T
C233        C234   1.208       .  T
C234        C235   1.412       .  S
C235        C236   1.207       .  T
C237        C238   1.208       .  T
C238        C239   1.412       .  S
C239        C240   1.207       .  T
C241        C242   1.206       .  T
C242        C243   1.411       .  S
C243        C244   1.207       .  T
C245        C246   1.207       .  T
C246        C247   1.411       .  S
C247        C248   1.207       .  T
C249        C250   1.207       .  T
C250        C251   1.412       .  S
C251        C252   1.207       .  T
C253        C254   1.207       .  T
C254        C255   1.412       .  S
C255        C256   1.208       .  T
C257        C258   1.207       .  T
C258        C259   1.411       .  S
C259        C260   1.206       .  T
C261        C262   1.206       .  T
C262        C263   1.411       .  S
C263        C264   1.207       .  T
C265        C266   1.208       .  T
C266        C267   1.412       .  S
C267        C268   1.207       .  T
C269        C270   1.207       .  T
C270        C271   1.411       .  S
C271        C272   1.207       .  T
C273        C274   1.207       .  T
C274        C275   1.412       .  S
C275        C276   1.207       .  T
C277        C278   1.208       .  T
C278        C279   1.412       .  S
C279        C280   1.207       .  T
C281        C282   1.207       .  T
C282        C283   1.411       .  S
C283        C284   1.206       .  T
C285        C286   1.207       .  T
C286        C287   1.411       .  S
C287        C288   1.207       .  T
C289        C290   1.207       .  T
C290        C291   1.411       .  S
C291        C292   1.206       .  T
C293        C294   1.208       .  T
C294        C295   1.412       .  S
C295        C296   1.207       .  T
C297        C298   1.207       .  T
C298        C299   1.412       .  S
C299        C300   1.208       .  T
C301        C302   1.206       .  T
C302        C303   1.411       .  S
C303        C304   1.207       .  T
C305        C306   1.207       .  T
C306        C307   1.412       .  S
C307        C308   1.207       .  T
C309        C310   1.208       .  T
C310        C311   1.412       .  S
C311        C312   1.207       .  T
C313        C314   1.206       .  T
C314        C315   1.411       .  S
C315        C316   1.207       .  T
C317        C318   1.207       .  T
C318        C319   1.411       .  S
C319        C320   1.207       .  T
C321        C322   1.207       .  T
C322        C323   1.412       .  S
C323        C324   1.207       .  T
C325        C326   1.207       .  T
C326        C327   1.411       .  S
C327        C328   1.206       .  T
C329        C330   1.208       .  T
C330        C331   1.412       .  S
C331        C332   1.207       .  T
C333        C334   1.207       .  T
C334        C335   1.411       .  S
C335        C336   1.206       .  T
C337        C338   1.207       .  T
C338        C339   1.411       .  S
C339        C340   1.207       .  T
C341        C342   1.208       .  T
C342        C343   1.412       .  S
C343        C344   1.207       .  T
C345        C346   1.207       .  T
C346        C347   1.412       .  S
C347        C348   1.207       .  T
C349        C350   1.207       .  T
C350        C351   1.412       .  S
C351        C352   1.208       .  T
C353        C354   1.206       .  T
C354        C355   1.411       .  S
C355        C356   1.207       .  T
C357        C358   1.207       .  T
C358        C359   1.412       .  S
C359        C360   1.208       .  T
C361        C362   1.207       .  T
C362        C363   1.411       .  S
C363        C364   1.206       .  T
C365        C366   1.207       .  T
C366        C367   1.411       .  S
C367        C368   1.207       .  T
C369        C370   1.207       .  T
C370        C371   1.412       .  S
C371        C372   1.207       .  T
C373        C374   1.207       .  T
C374        C375   1.411       .  S
C375        C376   1.206       .  T
C377        C378   1.208       .  T
C378        C379   1.412       .  S
C379        C380   1.207       .  T
C381        C382   1.207       .  T
C382        C383   1.411       .  S
C383        C384   1.207       .  T
C385        C386   1.206       .  T
C386        C387   1.411       .  S
C387        C388   1.207       .  T
C389        C390   1.208       .  T
C390        C391   1.412       .  S
C391        C392   1.207       .  T
C393        C394   1.207       .  T
C394        C395   1.412       .  S
C395        C396   1.207       .  T
C397        C398   1.208       .  T
C398        C399   1.412       .  S
C399        C400   1.207       .  T
C401        C402   1.206       .  T
C402        C403   1.411       .  S
C403        C404   1.207       .  T
