geometry optimzed in LAMMPS
_audit_creation_date              2020-11-30 
_audit_creation_method            'lammps2cif' 
_symmetry_space_group_name_H-M    'P1' 
_symmetry_Int_Tables_number       1 
_symmetry_cell_setting            triclinic 
loop_ 
_symmetry_equiv_pos_as_xyz 
  x,y,z 
_cell_length_a                    32.65147613 
_cell_length_b                    22.302640621483114 
_cell_length_c                    23.16924200226799 
_cell_angle_alpha                 90.70542207353166 
_cell_angle_beta                  90.73949376563712 
_cell_angle_gamma                 88.20322740037825 
loop_ 
_atom_site_label 
_atom_site_type_symbol 
_atom_site_fract_x 
_atom_site_fract_y 
_atom_site_fract_z 
_atom_site_charge 
O1          O  0.72324244  0.31273777  0.29109914    -0.80000
O2          O  0.53890145  0.31138160  0.36755641    -0.64700
O3          O  0.63740834  0.33338329  0.28355714    -1.11300
C4          C  0.63967213  0.01060786  0.38118398     1.06900
O5          O  0.51709224  0.40503041  0.35129789    -0.77900
O6          O  0.56635866  0.45551787  0.27372699    -0.65500
Ni7        Ni  0.67563011  0.26895041  0.26765629     1.34900
C8          C  0.59886439  0.46831178  0.24788076     0.85600
O9          O  0.57417204  0.24986735  0.28313838    -0.78400
O10         O  0.63233772  0.21958436  0.23952976    -0.88700
C11         C  0.51021545  0.35096205  0.36361663     0.85200
O12         O  0.67322086  0.23166321  0.34121505    -0.66900
O13         O  0.60569416  0.51285946  0.36164112    -0.86200
C14         C  0.64628548  0.22990940  0.38039922     0.86000
C15         C  0.59429602  0.21483740  0.24989149     1.07600
H16         H  0.60704718  0.38208640  0.40770032     0.39400
O17         O  0.60274939  0.38981513  0.36709303    -1.08900
O18         O  0.63397003  0.45486228  0.26931653    -0.65500
Ni19       Ni  0.65368965  0.40065115  0.32970789     1.26300
O20         O  0.61531009  0.26649431  0.38345856    -0.65700
O21         O  0.66629751  0.46759026  0.37965166    -0.78000
C22         C  0.72921846  0.36656348  0.27702287     0.85400
O23         O  0.70385821  0.40833858  0.29051926    -0.65200
Ni24       Ni  0.56382492  0.45485386  0.35620793     1.27400
Ni25       Ni  0.58876429  0.31903022  0.32620793     1.26100
H26         H  0.62840998  0.34761322  0.24614519     0.39900
C27         C  0.56213571  0.09420051  0.13862474    -0.01600
C28         C  0.64958419  0.06421742  0.41695496     0.87400
C29         C  0.64411766  0.12156915  0.38246741    -0.52900
C30         C  0.64707212  0.17328681  0.41374797     0.10300
C31         C  0.65544358  0.16196890  0.47901658     0.21200
C32         C  0.69136810  0.06880474  0.44722590    -0.53600
C33         C  0.69481250  0.12027957  0.48008798     0.10400
C34         C  0.61852808  0.06969512  0.46514282    -0.53100
C35         C  0.62115368  0.11968788  0.49830294     0.11000
H36         H  0.63886027  0.12117057  0.33598382     0.15500
H37         H  0.65783165  0.20357269  0.50549187     0.01200
H38         H  0.71587259  0.03508963  0.44276877     0.15800
H39         H  0.59577171  0.03603898  0.47204289     0.15600
O40         O  0.73825841  0.18751922  0.03073312    -0.80000
O41         O  0.92017323  0.19218883  0.12334392    -0.64700
O42         O  0.82281661  0.17425252  0.03251428    -1.11300
C43         C  0.80909129  0.00858389  0.15614626     1.06900
O44         O  0.93251790  0.09389316  0.12587307    -0.77900
O45         O  0.88078658  0.01280757  0.08908258    -0.65500
Ni46       Ni  0.78496718  0.23721960  0.01730178     1.34900
C47         C  0.86887270  0.01870606  0.03675954     0.85600
O48         O  0.88949152  0.24776341  0.03109381    -0.78400
O49         O  0.82932596  0.28912973  0.99946943    -0.88700
C50         C  0.94502140  0.14692454  0.12523845     0.85200
O51         O  0.78269861  0.27059278  0.09395840    -0.66900
O52         O  0.83291494  0.04119943  0.18469734    -0.86200
C53         C  0.81198852  0.28149582  0.12897176     0.86000
C54         C  0.86853761  0.28788010  0.00469325     1.07600
H55         H  0.83467309  0.14719907  0.15644981     0.39400
O56         O  0.84796451  0.12742952  0.12406111    -1.08900
O57         O  0.84176496  0.05779023  0.02141326    -0.65500
Ni58       Ni  0.80542270  0.10436202  0.07112174     1.26300
O59         O  0.84629052  0.25191879  0.12832715    -0.65700
O60         O  0.79218138  0.02840449  0.10954773    -0.78000
C61         C  0.73377321  0.13483109  0.00955892     0.85400
O62         O  0.76136481  0.09345353  0.01689471    -0.65200
Ni63       Ni  0.88211348  0.06709942  0.15463665     1.27400
Ni64       Ni  0.87006551  0.18775169  0.07912080     1.26100
H65         H  0.83042153  0.16384943  0.49303573     0.39900
C66         C  0.89359907  0.41766250  0.39991567    -0.01600
C67         C  0.80450510  0.44588603  0.18093071     0.87400
C68         C  0.80768930  0.39244632  0.13885199    -0.52900
C69         C  0.80778222  0.33732397  0.16508463     0.10300
C70         C  0.80396081  0.34170499  0.23221374     0.21200
C71         C  0.76592223  0.43639000  0.21540137    -0.53600
C72         C  0.76514905  0.38217211  0.24250696     0.10400
C73         C  0.84019046  0.43382979  0.22362747    -0.53100
C74         C  0.83906988  0.38219400  0.25281738     0.11000
H75         H  0.81056098  0.39759595  0.09252605     0.15500
H76         H  0.80359510  0.29775320  0.25416704     0.01200
H77         H  0.74129286  0.47016589  0.21821824     0.15800
H78         H  0.86437180  0.46510320  0.23263422     0.15600
O79         O  0.23218810  0.08590879  0.18808902    -0.80000
O80         O  0.41522963  0.06472890  0.11485856    -0.64700
O81         O  0.31685551  0.09916651  0.19918214    -1.11300
C82         C  0.31308365  0.27390242  0.09475619     1.06900
O83         O  0.43706394  0.15720333  0.12932584    -0.77900
O84         O  0.38797222  0.21485273  0.20690183    -0.65500
Ni85       Ni  0.27859608  0.03932139  0.21600479     1.34900
C86         C  0.35556286  0.23131928  0.23301576     0.85600
O87         O  0.37880543  0.00829830  0.19914968    -0.78400
O88         O  0.32148443  0.98799748  0.24699997    -0.88700
C89         C  0.44392139  0.10209397  0.11740537     0.85200
O90         O  0.28197960  0.99692225  0.14433701    -0.66900
O91         O  0.34843564  0.27278460  0.11849280    -0.86200
C92         C  0.30734002  0.99338179  0.10312121     0.86000
C93         C  0.35759715  0.47564736  0.23319559     1.07600
H94         H  0.34668577  0.14075796  0.07458752     0.39400
O95         O  0.35123417  0.14943889  0.11507809    -1.08900
O96         O  0.32034425  0.22070149  0.21209857    -0.65500
Ni97       Ni  0.30029360  0.16638115  0.15272910     1.26300
O98         O  0.33776644  0.02791405  0.09868951    -0.65700
O99         O  0.28766010  0.23246919  0.10200484    -0.78000
C100        C  0.22494901  0.13968196  0.20413326     0.85400
O101        O  0.24991434  0.18009803  0.19268710    -0.65200
Ni102      Ni  0.39027939  0.21112138  0.12446634     1.27400
Ni103      Ni  0.36511879  0.07842054  0.15621003     1.26100
H104        H  0.32611304  0.11381078  0.23637434     0.39900
C105        C  0.39241583  0.35230921  0.34094137    -0.01600
C106        C  0.30444148  0.32824776  0.05881665     0.87400
C107        C  0.30538781  0.38472786  0.09590719    -0.52900
C108        C  0.30371802  0.43707377  0.06644016     0.10300
C109        C  0.30063050  0.42749987  0.99989093     0.21200
C110        C  0.26522254  0.33486162  0.02208433    -0.53600
C111        C  0.26331455  0.38670598  0.98999527     0.10400
C112        C  0.33902354  0.33385381  0.01569829    -0.53100
C113        C  0.33701862  0.38470156  0.98427094     0.11000
H114        H  0.30819026  0.38326768  0.14274276     0.15500
H115        H  0.29919730  0.46962212  0.97478865     0.01200
H116        H  0.24186636  0.30126596  0.02044073     0.15800
H117        H  0.36241422  0.29877274  0.00890038     0.15600
O118        O  0.22531638  0.45179151  0.42453430    -0.80000
O119        O  0.03451470  0.48555542  0.38073719    -0.64700
O120        O  0.14211701  0.45292587  0.44489533    -1.11300
C121        C  0.13103002  0.27500903  0.32824583     1.06900
O122        O  0.02264727  0.39486310  0.40781945    -0.80300
O123        O  0.07006305  0.30349383  0.43381550    -0.65500
Ni124      Ni  0.18367917  0.51050109  0.44641630     1.34900
C125        C  0.09754728  0.30765697  0.47235425     0.85600
O126        O  0.08093543  0.53977562  0.46467822    -0.78400
O127        O  0.14849184  0.07466646  0.46617030    -0.88700
C128        C  0.00942442  0.44366516  0.38745629     0.85200
O129        O  0.17581020  0.03163114  0.36107835    -0.66900
O130        O  0.09352836  0.29177709  0.32430468    -0.86200
C131        C  0.14173937  0.05073501  0.33970396     0.86000
C132        C  0.11100191  0.07862643  0.48129688     1.07600
H133        H  0.10583615  0.41505771  0.32655042     0.39400
O134        O  0.10066872  0.40313636  0.36568882    -1.08900
O135        O  0.12894059  0.33836922  0.46614213    -0.65500
Ni136      Ni  0.15136986  0.37932032  0.40204351     1.26300
O137        O  0.10823966  0.52938103  0.35500918    -0.65700
O138        O  0.15763651  0.30346644  0.35848535    -0.78000
C139        C  0.22880257  0.40118098  0.44936129     0.85400
O140        O  0.20174024  0.36235304  0.44128166    -0.65200
Ni141      Ni  0.05891840  0.34545380  0.36466869     1.27400
Ni142      Ni  0.08948914  0.47304457  0.41274191     1.26100
H143        H  0.13784688  0.44346257  0.48491446     0.39900
C144        C  0.05066325  0.19683964  0.07581907    -0.01600
C145        C  0.14100610  0.21655053  0.29634004     0.87400
C146        C  0.13691022  0.16097557  0.33373009    -0.52900
C147        C  0.14151406  0.10722404  0.30506051     0.10300
C148        C  0.14976917  0.11480226  0.23928145     0.21200
C149        C  0.18272831  0.20865678  0.26720382    -0.53600
C150        C  0.18741878  0.15544547  0.23687264     0.10400
C151        C  0.11004188  0.20801300  0.24706698    -0.53100
C152        C  0.11472205  0.15680655  0.21577436     0.11000
H153        H  0.13140155  0.16406230  0.37984289     0.15500
H154        H  0.15353524  0.07185941  0.21489075     0.01200
H155        H  0.20607494  0.24224355  0.26963274     0.15800
H156        H  0.08641439  0.24147044  0.23640580     0.15600
C157        C  0.07812203  0.19871526  0.12962766    -0.15500
C158        C  0.09110533  0.14974955  0.16064643    -0.30700
H159        H  0.08776333  0.24296019  0.14287567     0.13500
H160        H  0.08447984  0.10475307  0.14571626     0.14100
C161        C  0.09345316  0.27321155  0.52568557    -0.15500
C162        C  0.05539956  0.25054894  0.03657635    -0.30700
H163        H  0.11821618  0.26662526  0.05172157     0.13500
H164        H  0.02975716  0.26043382  0.00734084     0.14100
C165        C  0.09927085  0.13191929  0.02016988    -0.15500
C166        C  0.06096499  0.14178279  0.03921759    -0.30700
H167        H  0.12314401  0.16259328  0.03229523     0.13500
H168        H  0.03725162  0.11020433  0.02849688     0.14100
C169        C  0.37262766  0.34374020  0.39895782    -0.15500
C170        C  0.36348188  0.39117090  0.43438809    -0.30700
H171        H  0.36237634  0.29932685  0.40940175     0.13500
H172        H  0.37127607  0.43620850  0.42212206     0.14100
C173        C  0.38032753  0.42551441  0.26044710    -0.15500
C174        C  0.36762171  0.40107804  0.30925855    -0.30700
H175        H  0.41036870  0.91190768  0.24310090     0.13500
H176        H  0.33876086  0.41759811  0.32737096     0.14100
C177        C  0.39239120  0.29567569  0.30290994    -0.15500
C178        C  0.35755331  0.26999631  0.28532786    -0.30700
H179        H  0.42105172  0.28029233  0.28349793     0.13500
H180        H  0.32869454  0.28566167  0.30391351     0.14100
C181        C  0.93920030  0.40580527  0.38968993    -0.15500
C182        C  0.96487836  0.45055524  0.37606391    -0.30700
H183        H  0.95211130  0.36226059  0.40202460     0.13500
H184        H  0.95250813  0.49439306  0.36369146     0.14100
C185        C  0.87155555  0.42382156  0.34192978    -0.15500
C186        C  0.86405494  0.37556362  0.30660703    -0.30700
H187        H  0.85876915  0.46786612  0.33107502     0.13500
H188        H  0.87396486  0.33067403  0.31932455     0.14100
C189        C  0.88670223  0.97511297  0.49291905    -0.15500
C190        C  0.89004404  0.47366884  0.43841842    -0.30700
H191        H  0.91503834  0.95235357  0.01087752     0.13500
H192        H  0.91783694  0.48986283  0.45888786     0.14100
C193        C  0.87350779  0.36696122  0.43180607    -0.15500
C194        C  0.88881363  0.34111586  0.47960811    -0.30700
H195        H  0.84434597  0.35114527  0.41525445     0.13500
H196        H  0.91657401  0.35410860  0.00333103     0.14100
C197        C  0.98958739  0.15318093  0.12234600    -0.15500
C198        C  0.00595187  0.19801949  0.09376028    -0.30700
H199        H  0.00895244  0.11498626  0.13504122     0.13500
H200        H  0.98554381  0.23456601  0.07941020     0.14100
C201        C  0.51827255  0.11722904  0.12702111    -0.15500
C202        C  0.48724117  0.08124823  0.11099891    -0.30700
H203        H  0.51094504  0.16367302  0.13863353     0.13500
H204        H  0.49367468  0.03437129  0.10029882     0.14100
C205        C  0.59634479  0.13115192  0.04898453    -0.15500
C206        C  0.58405548  0.08448484  0.08154167    -0.30700
H207        H  0.58963596  0.17710003  0.06270258     0.13500
H208        H  0.59324429  0.03878958  0.06982087     0.14100
C209        C  0.56128153  0.03745121  0.17523519    -0.15500
C210        C  0.59560337  0.00785248  0.19294968    -0.30700
H211        H  0.53235837  0.02534660  0.19395162     0.13500
H212        H  0.62479413  0.02008348  0.17517763     0.14100
C213        C  0.58589024  0.14031697  0.17323482    -0.15500
C214        C  0.57171736  0.16672184  0.22144423    -0.30700
H215        H  0.61562106  0.15327109  0.15771360     0.13500
H216        H  0.54184200  0.15569301  0.23772255     0.14100
C217        C  0.46704222  0.33377315  0.36867351    -0.15500
C218        C  0.43632208  0.37153524  0.35082827    -0.30700
H219        H  0.46052836  0.28806343  0.38039208     0.13500
H220        H  0.44366495  0.41674594  0.33835045     0.14100
O221        O  0.71893575  0.31336465  0.78518112    -0.80000
O222        O  0.53603670  0.31076765  0.86455729    -0.64700
O223        O  0.63344777  0.33239498  0.77860669    -1.11300
C224        C  0.63897611  0.01047902  0.88134610     1.06900
O225        O  0.51433194  0.40448467  0.84865246    -0.77900
O226        O  0.56247054  0.45703197  0.77134711    -0.65500
Ni227      Ni  0.67186639  0.26797342  0.76374328     1.34900
C228        C  0.59481260  0.46865976  0.74455575     0.85600
O229        O  0.57007526  0.24983833  0.77886197    -0.78400
O230        O  0.62877055  0.21688519  0.73829695    -0.88700
C231        C  0.50745539  0.35045141  0.86095339     0.85200
O232        O  0.67134443  0.23310444  0.83840372    -0.66900
O233        O  0.60264843  0.51227139  0.86010050    -0.86200
C234        C  0.64423495  0.23014856  0.87708383     0.86000
C235        C  0.59047714  0.21328389  0.74747752     1.07600
H236        H  0.60500909  0.38078107  0.90358683     0.39400
O237        O  0.60000349  0.38881327  0.86317211    -1.08900
O238        O  0.62990374  0.45394332  0.76474250    -0.65500
Ni239      Ni  0.65019253  0.39974599  0.82405723     1.26300
O240        O  0.61213176  0.26474954  0.87886104    -0.65700
O241        O  0.66378415  0.46626831  0.87300330    -0.78000
C242        C  0.72423662  0.36679670  0.76953719     0.85400
O243        O  0.69901657  0.40848455  0.78270793    -0.65200
Ni244      Ni  0.56095172  0.45418039  0.85390010     1.27400
Ni245      Ni  0.58536359  0.31829546  0.82228554     1.26100
H246        H  0.62425157  0.34624700  0.74114135     0.39900
C247        C  0.55932852  0.09056801  0.63793286    -0.01600
C248        C  0.64932027  0.06482502  0.91586092     0.87400
C249        C  0.64331123  0.12168620  0.88067969    -0.52900
C250        C  0.64648298  0.17389382  0.91116723     0.10300
C251        C  0.65611243  0.16348205  0.97635438     0.21200
C252        C  0.69149786  0.06973182  0.94488346    -0.53600
C253        C  0.69542161  0.12149008  0.97711516     0.10400
C254        C  0.61895374  0.07117622  0.96486269    -0.53100
C255        C  0.62213669  0.12166722  0.99724942     0.11000
H256        H  0.63719247  0.12060285  0.83440012     0.15500
H257        H  0.65890108  0.20541291  0.00223843     0.01200
H258        H  0.71574693  0.03557746  0.94071105     0.15800
H259        H  0.59625776  0.03772750  0.97288630     0.15600
O260        O  0.73736640  0.18781895  0.53219223    -0.80000
O261        O  0.92176618  0.19189830  0.61804828    -0.64700
O262        O  0.82217916  0.17525221  0.53165701    -1.11300
C263        C  0.81020849  0.00973275  0.65750258     1.06900
O264        O  0.93323295  0.09336739  0.62136698    -0.77900
O265        O  0.88059480  0.01243496  0.58734186    -0.65500
Ni266      Ni  0.78393075  0.23945989  0.52324964     1.34900
C267        C  0.86811550  0.01811229  0.53523341     0.85600
O268        O  0.88883691  0.24861427  0.52668205    -0.78400
O269        O  0.82770611  0.29493826  0.50832872    -0.88700
C270        C  0.94610805  0.14614290  0.62131956     0.85200
O271        O  0.78265699  0.26116649  0.60391648    -0.66900
O272        O  0.83495401  0.04194552  0.68485369    -0.86200
C273        C  0.81329998  0.27572726  0.63491076     0.86000
C274        C  0.86709730  0.29195377  0.50647415     1.07600
H275        H  0.83667072  0.14780516  0.65496992     0.39400
O276        O  0.84938457  0.12790108  0.62221415    -1.08900
O277        O  0.84133722  0.05794098  0.52027350    -0.65500
Ni278      Ni  0.80589723  0.10497145  0.57117706     1.26300
O279        O  0.84895556  0.25176917  0.62733191    -0.65700
O280        O  0.79314328  0.02924892  0.61081866    -0.78000
C281        C  0.73325125  0.13469399  0.51168583     0.85400
O282        O  0.76112565  0.09375260  0.51866979    -0.65200
Ni283      Ni  0.88348900  0.06735422  0.65229168     1.27400
Ni284      Ni  0.87073241  0.18804752  0.57601804     1.26100
H285        H  0.83268636  0.16195567  0.99491899     0.39900
C286        C  0.89280463  0.41663758  0.90296087    -0.01600
C287        C  0.80216389  0.44147485  0.67498903     0.87400
C288        C  0.80975664  0.38451522  0.63915400    -0.52900
C289        C  0.80919832  0.33276085  0.66909110     0.10300
C290        C  0.80022900  0.34347088  0.73453138     0.21200
C291        C  0.76098949  0.43337554  0.70383735    -0.53600
C292        C  0.76003132  0.38170800  0.73555146     0.10400
C293        C  0.83370823  0.43848251  0.72429824    -0.53100
C294        C  0.83188322  0.38904751  0.75749757     0.11000
H295        H  0.81484659  0.38519755  0.59285883     0.15500
H296        H  0.79951104  0.30161490  0.75991996     0.01200
H297        H  0.73544651  0.46556402  0.70042690     0.15800
H298        H  0.85107245  0.47733671  0.73734608     0.15600
O299        O  0.22957755  0.08621395  0.68761401    -0.80000
O300        O  0.41201197  0.06303811  0.61244179    -0.64700
O301        O  0.31430026  0.09876496  0.69772729    -1.11300
C302        C  0.31170277  0.27398489  0.59454218     1.06900
O303        O  0.43464904  0.15468293  0.62872759    -0.77900
O304        O  0.38561080  0.21287350  0.70636198    -0.65500
Ni305      Ni  0.27604858  0.03928177  0.71532653     1.34900
C306        C  0.35319156  0.23021797  0.73202089     0.85600
O307        O  0.37563729  0.00677899  0.69661782    -0.78400
O308        O  0.31903924  0.98816618  0.74672725    -0.88700
C309        C  0.44108663  0.09965029  0.61596967     0.85200
O310        O  0.27949557  0.99609413  0.64381127    -0.66900
O311        O  0.34703423  0.27203641  0.61829563    -0.86200
C312        C  0.30434930  0.99315518  0.60184890     0.86000
C313        C  0.35559544  0.47687258  0.73232713     1.07600
H314        H  0.34428221  0.14068451  0.57318040     0.39400
O315        O  0.34880087  0.14889406  0.61374625    -1.08900
O316        O  0.31800152  0.22011562  0.71087613    -0.65500
Ni317      Ni  0.29792198  0.16622387  0.65139880     1.26300
O318        O  0.33423975  0.02837803  0.59662349    -0.65700
O319        O  0.28591358  0.23283770  0.60109858    -0.78000
C320        C  0.22253551  0.14023279  0.70343178     0.85400
O321        O  0.24752312  0.18040610  0.69131689    -0.65200
Ni322      Ni  0.38835066  0.20963548  0.62395303     1.27400
Ni323      Ni  0.36225271  0.07745350  0.65430694     1.26100
H324        H  0.32387419  0.11332191  0.73478650     0.39900
C325        C  0.38997297  0.35221483  0.83869287    -0.01600
C326        C  0.30370862  0.32865366  0.55898339     0.87400
C327        C  0.30454550  0.38520121  0.59613904    -0.52900
C328        C  0.30312626  0.43751959  0.56651200     0.10300
C329        C  0.30064275  0.42781047  0.49998556     0.21200
C330        C  0.26483951  0.33542083  0.52177297    -0.53600
C331        C  0.26328736  0.38722872  0.48976164     0.10400
C332        C  0.33867189  0.33401163  0.51643775    -0.53100
C333        C  0.33712831  0.38482494  0.48500194     0.11000
H334        H  0.30689897  0.38382043  0.64301048     0.15500
H335        H  0.29945075  0.46988102  0.47480382     0.01200
H336        H  0.24132853  0.30205503  0.51997918     0.15800
H337        H  0.36210053  0.29887289  0.51018965     0.15600
O338        O  0.22599817  0.45015601  0.92261875    -0.80000
O339        O  0.03527667  0.49033200  0.88629357    -0.64700
O340        O  0.14366671  0.45507449  0.94492428    -1.11300
C341        C  0.12918116  0.27794598  0.82736465     1.06900
O342        O  0.02300190  0.39865077  0.91087913    -0.80300
O343        O  0.07045940  0.30373275  0.93067294    -0.65500
Ni344      Ni  0.18577903  0.51140797  0.94396669     1.34900
C345        C  0.09611374  0.30992562  0.97153994     0.85600
O346        O  0.08417593  0.54161951  0.96711028    -0.78400
O347        O  0.14972225  0.07445617  0.97376391    -0.88700
C348        C  0.00968029  0.44987479  0.89572698     0.85200
O349        O  0.17710854  0.03657890  0.86773705    -0.66900
O350        O  0.09286875  0.29911553  0.81907232    -0.86200
C351        C  0.14304609  0.05360280  0.84468440     0.86000
C352        C  0.11167440  0.07960958  0.98566655     1.07600
H353        H  0.10649379  0.41926291  0.82783035     0.39400
O354        O  0.10084681  0.40678491  0.86664844    -1.08900
O355        O  0.12657511  0.34301968  0.96776176    -0.65500
Ni356      Ni  0.15091466  0.38063540  0.90320703     1.26300
O357        O  0.10850059  0.53250133  0.85683530    -0.65700
O358        O  0.15510178  0.30330542  0.86135985    -0.78000
C359        C  0.22880364  0.40035125  0.94928396     0.85400
O360        O  0.20103602  0.36219957  0.94270716    -0.65200
Ni361      Ni  0.05862889  0.35054488  0.86391735     1.27400
Ni362      Ni  0.09086046  0.47595681  0.91478818     1.26100
H363        H  0.14013596  0.44651685  0.98530453     0.39900
C364        C  0.05252400  0.19466390  0.57634811    -0.01600
C365        C  0.13888472  0.21818107  0.79675968     0.87400
C366        C  0.13721586  0.16372751  0.83619217    -0.52900
C367        C  0.14217985  0.10921727  0.80887446     0.10300
C368        C  0.14856326  0.11474758  0.74247148     0.21200
C369        C  0.18002787  0.21083096  0.76542299    -0.53600
C370        C  0.18521982  0.15658844  0.73678611     0.10400
C371        C  0.10678800  0.20622904  0.74961775    -0.53100
C372        C  0.11229483  0.15444407  0.71928993     0.11000
H373        H  0.13260017  0.16804556  0.88244828     0.15500
H374        H  0.15252813  0.07107925  0.71936544     0.01200
H375        H  0.20274691  0.24535494  0.76564177     0.15800
H376        H  0.08244619  0.23833636  0.73819082     0.15600
C377        C  0.07995972  0.19555340  0.63012890    -0.15500
C378        C  0.09015387  0.14684584  0.66305615    -0.30700
H379        H  0.09126417  0.23908793  0.64287815     0.13500
H380        H  0.08226188  0.10204266  0.64902117     0.14100
C381        C  0.09131943  0.27536219  0.02473847    -0.15500
C382        C  0.05748907  0.24881652  0.53798147    -0.30700
H383        H  0.12067930  0.26361744  0.55174689     0.13500
H384        H  0.03157857  0.25955848  0.50946631     0.14100
C385        C  0.09969555  0.13011296  0.51770987    -0.15500
C386        C  0.06203390  0.13979828  0.53895608    -0.30700
H387        H  0.12393733  0.16039661  0.52915489     0.13500
H388        H  0.03799410  0.10862977  0.52857327     0.14100
C389        C  0.37062846  0.34362630  0.89692541    -0.15500
C390        C  0.36244073  0.39098558  0.93279135    -0.30700
H391        H  0.36026343  0.29931407  0.90752727     0.13500
H392        H  0.37033979  0.43595603  0.92043563     0.14100
C393        C  0.37798290  0.42608498  0.75888117    -0.15500
C394        C  0.36511701  0.40109450  0.80733429    -0.30700
H395        H  0.40760498  0.91106037  0.74126827     0.13500
H396        H  0.33634272  0.41762768  0.82570886     0.14100
C397        C  0.38991207  0.29560261  0.80075199    -0.15500
C398        C  0.35514537  0.26945329  0.78385586    -0.30700
H399        H  0.41850993  0.28032453  0.78108378     0.13500
H400        H  0.32630813  0.28507851  0.80254068     0.14100
C401        C  0.93965472  0.41462427  0.90368788    -0.15500
C402        C  0.96445870  0.46039004  0.89176679    -0.30700
H403        H  0.95409784  0.37177853  0.91525374     0.13500
H404        H  0.95166591  0.50409161  0.87989847     0.14100
C405        C  0.87789864  0.41949531  0.83959753    -0.15500
C406        C  0.84244929  0.39566277  0.81971951    -0.30700
H407        H  0.89969141  0.43328597  0.80761903     0.13500
H408        H  0.81938186  0.38127490  0.84930336     0.14100
C409        C  0.88834196  0.97688102  0.99439961    -0.15500
C410        C  0.87530329  0.46908717  0.94008156    -0.30700
H411        H  0.91319288  0.95009439  0.50941547     0.13500
H412        H  0.85086360  0.49768713  0.92226684     0.14100
C413        C  0.87846059  0.35809939  0.92857368    -0.15500
C414        C  0.89067469  0.33655970  0.97968848    -0.30700
H415        H  0.85694172  0.33058080  0.90527585     0.13500
H416        H  0.91863500  0.35324347  0.49655440     0.14100
C417        C  0.99067643  0.15148638  0.62065454    -0.15500
C418        C  0.00787149  0.19680832  0.59415580    -0.30700
H419        H  0.00936205  0.11237642  0.63265849     0.13500
H420        H  0.98799621  0.23435517  0.58070582     0.14100
C421        C  0.51551499  0.11363575  0.62583579    -0.15500
C422        C  0.48429557  0.07791876  0.61007134    -0.30700
H423        H  0.50838461  0.16034219  0.63661036     0.13500
H424        H  0.49043217  0.03085247  0.59987282     0.14100
C425        C  0.59443478  0.12832095  0.54926669    -0.15500
C426        C  0.58165179  0.08125112  0.58101426    -0.30700
H427        H  0.58754472  0.17410785  0.56332728     0.13500
H428        H  0.59095327  0.03566104  0.56907731     0.14100
C429        C  0.55858351  0.03392085  0.67480786    -0.15500
C430        C  0.59311983  0.00537424  0.69341718    -0.30700
H431        H  0.52965626  0.02148215  0.69328223     0.13500
H432        H  0.62222397  0.01796463  0.67562273     0.14100
C433        C  0.58284961  0.13675915  0.67275083    -0.15500
C434        C  0.56798367  0.16472009  0.71973367    -0.30700
H435        H  0.61306434  0.14861576  0.65816672     0.13500
H436        H  0.53767295  0.15484144  0.73518619     0.14100
C437        C  0.46438855  0.33342636  0.86618490    -0.15500
C438        C  0.43383189  0.37131354  0.84827033    -0.30700
H439        H  0.45779227  0.28777906  0.87801863     0.13500
H440        H  0.44123377  0.41649968  0.83577217     0.14100
O441        O  0.72029470  0.81330297  0.28608156    -0.80000
O442        O  0.53772491  0.81051545  0.36565134    -0.64700
O443        O  0.63476147  0.83241900  0.27902818    -1.11300
C444        C  0.64101719  0.51191006  0.38548642     1.06900
O445        O  0.51563567  0.90334307  0.34654945    -0.77900
O446        O  0.56414872  0.95728562  0.27061378    -0.65500
Ni447      Ni  0.67323265  0.76824777  0.26373198     1.34900
C448        C  0.59672240  0.96925572  0.24458537     0.85600
O449        O  0.57224443  0.74814111  0.28112180    -0.78400
O450        O  0.63026708  0.71799397  0.23702861    -0.88700
C451        C  0.50898156  0.84979286  0.36096980     0.85200
O452        O  0.67155151  0.73181754  0.33782332    -0.66900
O453        O  0.60333560  0.01212625  0.36054585    -0.86200
C454        C  0.64519042  0.73082747  0.37786257     0.86000
C455        C  0.59239996  0.71285559  0.24813751     1.07600
H456        H  0.60584127  0.88168177  0.40356449     0.39400
O457        O  0.60101116  0.88913838  0.36300041    -1.08900
O458        O  0.63161977  0.95410700  0.26509030    -0.65500
Ni459      Ni  0.65136562  0.89980050  0.32453493     1.26300
O460        O  0.61408581  0.76702233  0.38071476    -0.65700
O461        O  0.66462844  0.96631581  0.37357433    -0.78000
C462        C  0.72560866  0.86680140  0.27045769     0.85400
O463        O  0.70039269  0.90840124  0.28381939    -0.65200
Ni464      Ni  0.56181643  0.95384962  0.35304175     1.27400
Ni465      Ni  0.58684708  0.81805106  0.32304421     1.26100
H466        H  0.62539024  0.84633288  0.24166665     0.39900
C467        C  0.56162102  0.58976028  0.13916671    -0.01600
C468        C  0.64908798  0.56691488  0.42099907     0.87400
C469        C  0.64638038  0.62259430  0.38393322    -0.52900
C470        C  0.64692033  0.67566052  0.41339724     0.10300
C471        C  0.65035153  0.66758252  0.48000726     0.21200
C472        C  0.68837697  0.57334974  0.45731351    -0.53600
C473        C  0.68918688  0.62641683  0.48881603     0.10400
C474        C  0.61464567  0.57456343  0.46428179    -0.53100
C475        C  0.61524130  0.62562662  0.49622817     0.11000
H476        H  0.64381841  0.62007534  0.33708077     0.15500
H477        H  0.65074752  0.71025117  0.50517736     0.01200
H478        H  0.71298196  0.53946306  0.45820510     0.15800
H479        H  0.59206636  0.54046314  0.47043730     0.15600
O480        O  0.73742523  0.68757129  0.03121208    -0.80000
O481        O  0.91985808  0.69063074  0.12402047    -0.64700
O482        O  0.82206241  0.67369312  0.03392272    -1.11300
C483        C  0.80751138  0.50904584  0.15788039     1.06900
O484        O  0.93159214  0.59241472  0.13055188    -0.77900
O485        O  0.87956669  0.51264665  0.09147449    -0.65500
Ni486      Ni  0.78454961  0.73740459  0.02027310     1.34900
C487        C  0.86806032  0.51884604  0.03886300     0.85600
O488        O  0.88959302  0.74459725  0.03112029    -0.78400
O489        O  0.82930957  0.78966910  0.00486761    -0.88700
C490        C  0.94440184  0.64518490  0.12751255     0.85200
O491        O  0.78217170  0.76728654  0.09815061    -0.66900
O492        O  0.83023506  0.54270005  0.18694526    -0.86200
C493        C  0.81240393  0.78065443  0.13050648     0.86000
C494        C  0.86862645  0.78679878  0.00807766     1.07600
H495        H  0.83370732  0.64816627  0.15790414     0.39400
O496        O  0.84697068  0.62748415  0.12598908    -1.08900
O497        O  0.84099497  0.55791021  0.02346427    -0.65500
Ni498      Ni  0.80445619  0.60426477  0.07278129     1.26300
O499        O  0.84707898  0.75228154  0.12812243    -0.65700
O500        O  0.79105322  0.52819631  0.11081853    -0.78000
C501        C  0.73305783  0.63455431  0.01064953     0.85400
O502        O  0.76065503  0.59328020  0.01830598    -0.65200
Ni503      Ni  0.88033069  0.56682286  0.15776725     1.27400
Ni504      Ni  0.86968831  0.68631366  0.08008120     1.26100
H505        H  0.82520584  0.65517636  0.50333524     0.39900
C506        C  0.89247794  0.91000063  0.40342741    -0.01600
C507        C  0.80441154  0.94586565  0.17986255     0.87400
C508        C  0.81064209  0.89201702  0.13881917    -0.52900
C509        C  0.80862522  0.83731402  0.16530597     0.10300
C510        C  0.80038240  0.84243233  0.23127444     0.21200
C511        C  0.76341553  0.93623350  0.20892635    -0.53600
C512        C  0.76135385  0.88225027  0.23636188     0.10400
C513        C  0.83689724  0.93444242  0.22768251    -0.53100
C514        C  0.83356815  0.88312002  0.25692859     0.11000
H515        H  0.81609607  0.89659000  0.09295200     0.15500
H516        H  0.79887301  0.79843819  0.25296690     0.01200
H517        H  0.73873871  0.97005310  0.20932921     0.15800
H518        H  0.85724865  0.96851698  0.24379763     0.15600
O519        O  0.23062192  0.58591659  0.18862032    -0.80000
O520        O  0.41377272  0.56238494  0.11416720    -0.64700
O521        O  0.31560396  0.59790672  0.19866391    -1.11300
C522        C  0.31350336  0.77373196  0.09574559     1.06900
O523        O  0.43652739  0.65387466  0.13056578    -0.77900
O524        O  0.38735096  0.71292135  0.20755687    -0.65500
Ni525      Ni  0.27715384  0.53821812  0.21528666     1.34900
C526        C  0.35488684  0.72995288  0.23328434     0.85600
O527        O  0.37728785  0.50647568  0.19802484    -0.78400
O528        O  0.32003202  0.48594187  0.24574323    -0.88700
C529        C  0.44295193  0.59875698  0.11808121     0.85200
O530        O  0.28015429  0.49656357  0.14295745    -0.66900
O531        O  0.34908807  0.77159183  0.11877091    -0.86200
C532        C  0.30565850  0.49300065  0.10183868     0.86000
C533        C  0.35894256  0.97743529  0.23420324     1.07600
H534        H  0.34590061  0.64009332  0.07446036     0.39400
O535        O  0.35043438  0.64832866  0.11502165    -1.08900
O536        O  0.31970943  0.71938277  0.21232498    -0.65500
Ni537      Ni  0.29949402  0.66576798  0.15268887     1.26300
O538        O  0.33619824  0.52728131  0.09770913    -0.65700
O539        O  0.28766211  0.73271645  0.10270462    -0.78000
C540        C  0.22370556  0.63999694  0.20437729     0.85400
O541        O  0.24898356  0.67998467  0.19266135    -0.65200
Ni542      Ni  0.39021604  0.70894325  0.12515023     1.27400
Ni543      Ni  0.36380802  0.57683086  0.15557111     1.26100
H544        H  0.32496762  0.61219870  0.23592505     0.39900
C545        C  0.39152475  0.85195743  0.34038758    -0.01600
C546        C  0.30518035  0.82849057  0.06034147     0.87400
C547        C  0.30673857  0.88497561  0.09742034    -0.52900
C548        C  0.30512332  0.93734483  0.06787383     0.10300
C549        C  0.30130625  0.92768867  0.00138540     0.21200
C550        C  0.26575084  0.83536938  0.02426125    -0.53600
C551        C  0.26376112  0.88702943  0.99209540     0.10400
C552        C  0.33950299  0.83380678  0.01676049    -0.53100
C553        C  0.33746929  0.88468043  0.98536597     0.11000
H554        H  0.30987829  0.88349098  0.14421599     0.15500
H555        H  0.29979897  0.96975842  0.97620155     0.01200
H556        H  0.24232358  0.80187644  0.02292364     0.15800
H557        H  0.36276536  0.79859968  0.00970958     0.15600
O558        O  0.22588384  0.94939776  0.42166110    -0.80000
O559        O  0.03413272  0.98800838  0.38751009    -0.64700
O560        O  0.14336157  0.95437345  0.44487888    -1.11300
C561        C  0.12928212  0.77719881  0.32776071     1.06900
O562        O  0.02284221  0.89602760  0.41224408    -0.80300
O563        O  0.07053474  0.80149292  0.43092743    -0.65500
Ni564      Ni  0.18533095  0.01086996  0.44092733     1.34900
C565        C  0.09579685  0.80806382  0.47217429     0.85600
O566        O  0.08399987  0.04076779  0.46715113    -0.78400
O567        O  0.14574925  0.57151690  0.47384946    -0.88700
C568        C  0.00894751  0.94687523  0.39707664     0.85200
O569        O  0.17596456  0.53773168  0.36823680    -0.66900
O570        O  0.09285767  0.79801068  0.31959535    -0.86200
C571        C  0.14237911  0.55283919  0.34287171     0.86000
C572        C  0.10741872  0.57636155  0.48378779     1.07600
H573        H  0.10586019  0.91767873  0.32848374     0.39400
O574        O  0.10026990  0.90530922  0.36735285    -1.08900
O575        O  0.12606146  0.84181797  0.46874317    -0.65500
Ni576      Ni  0.15045024  0.87964914  0.40383359     1.26300
O577        O  0.10740720  0.03118655  0.35642140    -0.65700
O578        O  0.15498669  0.80241227  0.36212053    -0.78000
C579        C  0.22860629  0.89993825  0.44875908     0.85400
O580        O  0.20067825  0.86190466  0.44306991    -0.65200
Ni581      Ni  0.05838765  0.84867578  0.36468269     1.27400
Ni582      Ni  0.09024540  0.97468938  0.41515011     1.26100
H583        H  0.14038694  0.94636622  0.48548503     0.39900
C584        C  0.05021528  0.69386430  0.07652421    -0.01600
C585        C  0.13929194  0.71792544  0.29661167     0.87400
C586        C  0.13689868  0.66301737  0.33532515    -0.52900
C587        C  0.14171844  0.60878682  0.30747907     0.10300
C588        C  0.14889291  0.61512438  0.24130865     0.21200
C589        C  0.18076549  0.71053170  0.26609298    -0.53600
C590        C  0.18597102  0.65657782  0.23692928     0.10400
C591        C  0.10764241  0.70702349  0.24868408    -0.53100
C592        C  0.11301386  0.65555704  0.21793196     0.11000
H593        H  0.13195522  0.66682945  0.38154904     0.15500
H594        H  0.15284420  0.57171362  0.21776062     0.01200
H595        H  0.20370660  0.74474655  0.26729443     0.15800
H596        H  0.08326977  0.73923646  0.23782322     0.15600
C597        C  0.07750774  0.69620258  0.13048510    -0.15500
C598        C  0.09003295  0.64765649  0.16237283    -0.30700
H599        H  0.08686836  0.74059094  0.14374875     0.13500
H600        H  0.08361046  0.60248168  0.14776487     0.14100
C601        C  0.09034838  0.77339432  0.52540722    -0.15500
C602        C  0.05509048  0.74727048  0.03676458    -0.30700
H603        H  0.11724390  0.76609306  0.05451889     0.13500
H604        H  0.02997684  0.75562829  0.00624831     0.14100
C605        C  0.09866124  0.62975145  0.01999365    -0.15500
C606        C  0.06058828  0.63861031  0.04024563    -0.30700
H607        H  0.12235546  0.66085443  0.03179771     0.13500
H608        H  0.03700031  0.60670804  0.02988590     0.14100
C609        C  0.37162592  0.84375895  0.39834176    -0.15500
C610        C  0.36301573  0.89133197  0.43385683    -0.30700
H611        H  0.36114270  0.79951083  0.40891481     0.13500
H612        H  0.37100998  0.93625879  0.42148167     0.14100
C613        C  0.38106246  0.92660775  0.26095116    -0.15500
C614        C  0.36724432  0.90097080  0.30856979    -0.30700
H615        H  0.40939306  0.41058716  0.24199242     0.13500
H616        H  0.33812469  0.91719108  0.32610449     0.14100
C617        C  0.39148269  0.79535320  0.30233606    -0.15500
C618        C  0.35674014  0.76926542  0.28514905    -0.30700
H619        H  0.42011035  0.78004093  0.28278824     0.13500
H620        H  0.32786174  0.78487212  0.30371886     0.14100
C621        C  0.93933071  0.90961986  0.40618027    -0.15500
C622        C  0.96357843  0.95571707  0.39266048    -0.30700
H623        H  0.95412238  0.86806607  0.42079404     0.13500
H624        H  0.95020356  0.99829683  0.37847815     0.14100
C625        C  0.87895872  0.91068941  0.33986975    -0.15500
C626        C  0.84376245  0.88657871  0.31927380    -0.30700
H627        H  0.90138154  0.92408951  0.30861934     0.13500
H628        H  0.82035566  0.87186013  0.34822305     0.14100
C629        C  0.85448864  0.49867538  0.45563920    -0.15500
C630        C  0.87363872  0.96322031  0.43831823    -0.30700
H631        H  0.91312780  0.45059161  0.01229594     0.13500
H632        H  0.84830433  0.98964838  0.41990241     0.14100
C633        C  0.87814207  0.85146741  0.42883706    -0.15500
C634        C  0.88656274  0.83301626  0.48214910    -0.30700
H635        H  0.85964771  0.82127349  0.40331875     0.13500
H636        H  0.91495769  0.85553926  0.00946994     0.14100
C637        C  0.98902502  0.65095575  0.12387391    -0.15500
C638        C  0.00544387  0.69516400  0.09431355    -0.30700
H639        H  0.00833524  0.61300370  0.13731906     0.13500
H640        H  0.98508564  0.73146507  0.07929080     0.14100
C641        C  0.51751566  0.61233183  0.12788589    -0.15500
C642        C  0.48618616  0.57660782  0.11270475    -0.30700
H643        H  0.51037205  0.65912792  0.13829581     0.13500
H644        H  0.49223430  0.52946178  0.10279632     0.14100
C645        C  0.59529661  0.62804863  0.04960692    -0.15500
C646        C  0.58347715  0.58078422  0.08186526    -0.30700
H647        H  0.58807033  0.67375164  0.06362450     0.13500
H648        H  0.59316316  0.53536216  0.06987220     0.14100
C649        C  0.56198134  0.53310023  0.17622443    -0.15500
C650        C  0.59703581  0.50609100  0.19546547    -0.30700
H651        H  0.53322577  0.51932358  0.19423201     0.13500
H652        H  0.62598907  0.52002773  0.17820703     0.14100
C653        C  0.58488551  0.63656998  0.17336415    -0.15500
C654        C  0.57019243  0.66389170  0.22078493    -0.30700
H655        H  0.61469832  0.64936960  0.15800299     0.13500
H656        H  0.54029957  0.65294196  0.23704934     0.14100
C657        C  0.46602715  0.83264413  0.36711871    -0.15500
C658        C  0.43532547  0.87090766  0.35061325    -0.30700
H659        H  0.45958462  0.78675493  0.37828907     0.13500
H660        H  0.44263374  0.91646515  0.33923335     0.14100
O661        O  0.72045078  0.81348765  0.78580138    -0.80000
O662        O  0.53611251  0.80962212  0.86427642    -0.64700
O663        O  0.63432500  0.83154643  0.77988716    -1.11300
C664        C  0.63900092  0.51075251  0.88054011     1.06900
O665        O  0.51443731  0.90360552  0.85016994    -0.77900
O666        O  0.56236891  0.95637243  0.77273600    -0.65500
Ni667      Ni  0.67312896  0.76700612  0.76674187     1.34900
C668        C  0.59470055  0.96777980  0.74581227     0.85600
O669        O  0.57068369  0.74973792  0.77871383    -0.78400
O670        O  0.63032547  0.71438038  0.74279972    -0.88700
C671        C  0.50756410  0.84937115  0.86150761     0.85200
O672        O  0.67281850  0.73506370  0.84287026    -0.66900
O673        O  0.60249971  0.01161132  0.86143838    -0.86200
C674        C  0.64442966  0.73036370  0.87950460     0.86000
C675        C  0.59171022  0.71186276  0.74972260     1.07600
H676        H  0.60515635  0.87949250  0.90457993     0.39400
O677        O  0.60020277  0.88784882  0.86421477    -1.08900
O678        O  0.62984306  0.95292867  0.76584420    -0.65500
Ni679      Ni  0.65049810  0.89915447  0.82531956     1.26300
O680        O  0.61162552  0.76345244  0.87930227    -0.65700
O681        O  0.66374793  0.96595116  0.87410361    -0.78000
C682        C  0.72544949  0.86751467  0.77145870     0.85400
O683        O  0.69949415  0.90839820  0.78430024    -0.65200
Ni684      Ni  0.56102238  0.95325456  0.85528675     1.27400
Ni685      Ni  0.58573558  0.81762805  0.82273062     1.26100
H686        H  0.62559247  0.84504481  0.74209555     0.39900
C687        C  0.55875967  0.59238594  0.63849634    -0.01600
C688        C  0.64910390  0.56451892  0.91601541     0.87400
C689        C  0.64310393  0.62190975  0.88160415    -0.52900
C690        C  0.64608987  0.67363604  0.91283464     0.10300
C691        C  0.65527541  0.66228648  0.97796951     0.21200
C692        C  0.69114154  0.56931288  0.94553692    -0.53600
C693        C  0.69473159  0.62071645  0.97843735     0.10400
C694        C  0.61850910  0.56979277  0.96481288    -0.53100
C695        C  0.62134907  0.61977338  0.99794873     0.11000
H696        H  0.63737610  0.62152257  0.83523391     0.15500
H697        H  0.65779033  0.70386100  0.00445911     0.01200
H698        H  0.71560012  0.53554857  0.94093458     0.15800
H699        H  0.59596103  0.53596111  0.97224824     0.15600
O700        O  0.73147720  0.69539706  0.54127424    -0.80000
O701        O  0.91648413  0.69152363  0.62499056    -0.64700
O702        O  0.81637785  0.67136389  0.54013234    -1.11300
C703        C  0.80929178  0.49583226  0.64054166     1.06900
O704        O  0.93460961  0.59459556  0.62027325    -0.77900
O705        O  0.88498190  0.55065929  0.53555107    -0.65500
Ni706      Ni  0.78026614  0.73650855  0.51973367     1.34900
C707        C  0.85258664  0.53752975  0.50766517     0.85600
O708        O  0.88247225  0.74924135  0.53938962    -0.78400
O709        O  0.82524510  0.78203482  0.49338112    -0.88700
C710        C  0.94339016  0.64898603  0.62664159     0.85200
O711        O  0.78313770  0.77904109  0.59187165    -0.66900
O712        O  0.84379475  0.49390373  0.61668191    -0.86200
C713        C  0.81024589  0.78209099  0.63183630     0.86000
C714        C  0.86335507  0.78469609  0.50594025     1.07600
H715        H  0.84486474  0.62736798  0.66659163     0.39400
O716        O  0.84918469  0.61712983  0.62648814    -1.08900
O717        O  0.81738716  0.55089603  0.52723044    -0.65500
Ni718      Ni  0.79814407  0.60664528  0.58621131     1.26300
O719        O  0.84042362  0.74387885  0.63732282    -0.65700
O720        O  0.78437695  0.54077233  0.63523182    -0.78000
C721        C  0.72456081  0.64130955  0.52683644     0.85400
O722        O  0.74830923  0.59886223  0.54356590    -0.65200
Ni723      Ni  0.88642943  0.54916810  0.61818944     1.27400
Ni724      Ni  0.86554671  0.68462672  0.58370407     1.26100
H725        H  0.83147079  0.66151607  0.99604991     0.39900
C726        C  0.89417055  0.91219451  0.90486896    -0.01600
C727        C  0.80509059  0.94731598  0.68219216     0.87400
C728        C  0.81055154  0.89324953  0.64125209    -0.52900
C729        C  0.80854504  0.83845330  0.66770448     0.10300
C730        C  0.80089871  0.84386151  0.73378428     0.21200
C731        C  0.76423739  0.93825018  0.71204280    -0.53600
C732        C  0.76195895  0.88410999  0.73926792     0.10400
C733        C  0.83785856  0.93557204  0.72951521    -0.53100
C734        C  0.83451815  0.88425341  0.75888262     0.11000
H735        H  0.81528380  0.89779438  0.59520026     0.15500
H736        H  0.79928286  0.79990298  0.75550692     0.01200
H737        H  0.73957648  0.97208469  0.71226781     0.15800
H738        H  0.85833559  0.96960774  0.74533427     0.15600
O739        O  0.22869190  0.58747653  0.68759736    -0.80000
O740        O  0.41197188  0.56416496  0.61396656    -0.64700
O741        O  0.31365722  0.59931946  0.69800305    -1.11300
C742        C  0.31160360  0.77416551  0.59426164     1.06900
O743        O  0.43425411  0.65602149  0.62982893    -0.77900
O744        O  0.38507104  0.71370739  0.70689158    -0.65500
Ni745      Ni  0.27517671  0.53952106  0.71416607     1.34900
C746        C  0.35261816  0.73106561  0.73239132     0.85600
O747        O  0.37562706  0.50835642  0.69810555    -0.78400
O748        O  0.31792721  0.48692476  0.74439443    -0.88700
C749        C  0.44083311  0.60104903  0.61729732     0.85200
O750        O  0.27834620  0.49793562  0.64177532    -0.66900
O751        O  0.34667572  0.77259441  0.61863620    -0.86200
C752        C  0.30446825  0.49378410  0.60146072     0.86000
C753        C  0.35624155  0.97686648  0.73293924     1.07600
H754        H  0.34421040  0.64094837  0.57365736     0.39400
O755        O  0.34856544  0.64942480  0.61421797    -1.08900
O756        O  0.31747992  0.72088148  0.71108800    -0.65500
Ni757      Ni  0.29758000  0.66683088  0.65150674     1.26300
O758        O  0.33499211  0.52809352  0.59764831    -0.65700
O759        O  0.28578562  0.73311820  0.60085741    -0.78000
C760        C  0.22188155  0.64168652  0.70309002     0.85400
O761        O  0.24714157  0.68149136  0.69111994    -0.65200
Ni762      Ni  0.38796916  0.71048109  0.62456484     1.27400
Ni763      Ni  0.36204878  0.57837957  0.65527987     1.26100
H764        H  0.32279654  0.61377029  0.73531744     0.39900
C765        C  0.39006393  0.85218543  0.83963761    -0.01600
C766        C  0.30371118  0.82854058  0.55853430     0.87400
C767        C  0.30401021  0.88489329  0.59579680    -0.52900
C768        C  0.30252259  0.93727228  0.56638059     0.10300
C769        C  0.30030623  0.92772193  0.49971655     0.21200
C770        C  0.26502688  0.83474408  0.52101747    -0.53600
C771        C  0.26324225  0.88652435  0.48907083     0.10400
C772        C  0.33888566  0.83442922  0.51641766    -0.53100
C773        C  0.33709528  0.88522760  0.48493081     0.11000
H774        H  0.30635643  0.88331262  0.64267007     0.15500
H775        H  0.29895926  0.96985227  0.47462453     0.01200
H776        H  0.24176296  0.80102017  0.51904400     0.15800
H777        H  0.36245324  0.79948520  0.51018613     0.15600
O778        O  0.22617500  0.94992770  0.92478214    -0.80000
O779        O  0.03540780  0.99057852  0.88996957    -0.64700
O780        O  0.14400697  0.95499249  0.94787494    -1.11300
C781        C  0.12865624  0.77900394  0.82834184     1.06900
O782        O  0.02412550  0.89898922  0.91542959    -0.80300
O783        O  0.07067077  0.80285258  0.93230405    -0.65500
Ni784      Ni  0.18623029  0.01125943  0.94645889     1.34900
C785        C  0.09600568  0.80889603  0.97355678     0.85600
O786        O  0.08478549  0.04237783  0.96973491    -0.78400
O787        O  0.14900879  0.57417401  0.97147617    -0.88700
C788        C  0.01021216  0.94965960  0.89975383     0.85200
O789        O  0.17672957  0.53721854  0.86528767    -0.66900
O790        O  0.09235502  0.80050890  0.82044852    -0.86200
C791        C  0.14261878  0.55433775  0.84236655     0.86000
C792        C  0.11101101  0.57859283  0.98387611     1.07600
H793        H  0.10655829  0.91958487  0.83095819     0.39400
O794        O  0.10092683  0.90704191  0.86975213    -1.08900
O795        O  0.12639156  0.84238717  0.97034640    -0.65500
Ni796      Ni  0.15092370  0.88051629  0.90586040     1.26300
O797        O  0.10883630  0.03230102  0.85954524    -0.65700
O798        O  0.15464493  0.80349055  0.86301941    -0.78000
C799        C  0.22908461  0.90023533  0.95150097     0.85400
O800        O  0.20133050  0.86191647  0.94499116    -0.65200
Ni801      Ni  0.05861151  0.85123230  0.86676502     1.27400
Ni802      Ni  0.09116716  0.97625000  0.91793862     1.26100
H803        H  0.14058136  0.94630549  0.98825862     0.39900
C804        C  0.04858160  0.69529703  0.57669216    -0.01600
C805        C  0.13818883  0.71971631  0.79659534     0.87400
C806        C  0.13658751  0.66466330  0.83530768    -0.52900
C807        C  0.14147323  0.61052246  0.80729712     0.10300
C808        C  0.14760433  0.61699432  0.74098136     0.21200
C809        C  0.17927498  0.71264672  0.76493008    -0.53600
C810        C  0.18434699  0.65864359  0.73575334     0.10400
C811        C  0.10593966  0.70852341  0.74938469    -0.53100
C812        C  0.11136087  0.65714497  0.71832817     0.11000
H813        H  0.13216753  0.66832624  0.88164507     0.15500
H814        H  0.15145512  0.57360186  0.71736456     0.01200
H815        H  0.20215705  0.74694079  0.76570570     0.15800
H816        H  0.08146576  0.74070814  0.73886959     0.15600
C817        C  0.07627899  0.69791169  0.63034867    -0.15500
C818        C  0.08892719  0.64944798  0.66225880    -0.30700
H819        H  0.08459840  0.74253983  0.64438893     0.13500
H820        H  0.08283872  0.60423735  0.64740092     0.14100
C821        C  0.09077205  0.77376566  0.02646569    -0.15500
C822        C  0.05444679  0.74736013  0.53558576    -0.30700
H823        H  0.11662977  0.76588961  0.55386226     0.13500
H824        H  0.02961335  0.75543242  0.50457279     0.14100
C825        C  0.09497927  0.62803567  0.51977780    -0.15500
C826        C  0.05734421  0.63841094  0.54125580    -0.30700
H827        H  0.11900358  0.65890893  0.53080411     0.13500
H828        H  0.03314124  0.60712533  0.53224730     0.14100
C829        C  0.37060979  0.84366297  0.89777371    -0.15500
C830        C  0.36278898  0.89095790  0.93383565    -0.30700
H831        H  0.35991927  0.79948079  0.90820496     0.13500
H832        H  0.37098240  0.93586935  0.92169533     0.14100
C833        C  0.37869303  0.92638008  0.75992735    -0.15500
C834        C  0.36565413  0.90157065  0.80841597    -0.30700
H835        H  0.40702142  0.41120156  0.74031206     0.13500
H836        H  0.33694357  0.91837106  0.82678060     0.14100
C837        C  0.38956501  0.79574669  0.80150250    -0.15500
C838        C  0.35458751  0.77039909  0.78417388    -0.30700
H839        H  0.41812121  0.77986060  0.78212688     0.13500
H840        H  0.32577983  0.78655902  0.80257331     0.14100
C841        C  0.94092676  0.91190651  0.90697205    -0.15500
C842        C  0.96497321  0.95848531  0.89478042    -0.30700
H843        H  0.95586063  0.86991678  0.92015182     0.13500
H844        H  0.95156093  0.00142167  0.88167440     0.14100
C845        C  0.88027401  0.91232979  0.84144777    -0.15500
C846        C  0.84527172  0.88738493  0.82111935    -0.30700
H847        H  0.90237461  0.92639266  0.81003060     0.13500
H848        H  0.82213981  0.87217216  0.85020662     0.14100
C849        C  0.88745056  0.47731142  0.99582687    -0.15500
C850        C  0.87538528  0.96526719  0.93973701    -0.30700
H851        H  0.82597009  0.48316817  0.43690948     0.13500
H852        H  0.84977193  0.99128647  0.92154656     0.14100
C853        C  0.88037679  0.85410367  0.93136145    -0.15500
C854        C  0.89078298  0.83561094  0.98406905    -0.30700
H855        H  0.86080245  0.82417585  0.90728066     0.13500
H856        H  0.90965388  0.85357408  0.50906029     0.14100
C857        C  0.98740960  0.66002591  0.63023789    -0.15500
C858        C  0.00385266  0.69953427  0.59504348    -0.30700
H859        H  0.00700020  0.62493493  0.64889117     0.13500
H860        H  0.98324525  0.73261305  0.57479438     0.14100
C861        C  0.51482986  0.61535275  0.62861995    -0.15500
C862        C  0.48396948  0.57988056  0.61117860    -0.30700
H863        H  0.50751122  0.66142078  0.64159940     0.13500
H864        H  0.49038849  0.53335372  0.59908656     0.14100
C865        C  0.58905062  0.63243148  0.54775151    -0.15500
C866        C  0.57946585  0.58441437  0.58048438    -0.30700
H867        H  0.58093712  0.67768116  0.56228307     0.13500
H868        H  0.59000593  0.53947102  0.56814851     0.14100
C869        C  0.55855968  0.53502751  0.67432370    -0.15500
C870        C  0.59320568  0.50645049  0.69230170    -0.30700
H871        H  0.52978560  0.52208461  0.69293425     0.13500
H872        H  0.62222937  0.51940407  0.67451286     0.14100
C873        C  0.58294959  0.63810084  0.67290851    -0.15500
C874        C  0.56948483  0.66315045  0.72206170    -0.30700
H875        H  0.61211565  0.65226051  0.65631465     0.13500
H876        H  0.53993116  0.65150054  0.73901852     0.14100
C877        C  0.46449281  0.83235748  0.86671603    -0.15500
C878        C  0.43402254  0.87066619  0.84936121    -0.30700
H879        H  0.45782138  0.78657716  0.87799894     0.13500
H880        H  0.44156684  0.91594727  0.83736194     0.14100
loop_ 
_geom_bond_atom_site_label_1 
_geom_bond_atom_site_label_2 
_geom_bond_distance 
_geom_bond_site_symmetry_2 
_ccdc_geom_bond_type 
O1           Ni7   1.930       .  S
O1           C22   1.269       .  A
O2          Ni25   1.913       .  S
O2           C11   1.270       .  A
O3           Ni7   1.909       .  S
O3          Ni25   1.919       .  S
O3          Ni19   1.916       .  S
O3           H26   0.966       .  S
C4          O461   1.273   1_545  A
C4          O453   1.273       .  A
C4           C28   1.488       .  S
O5          Ni24   1.917       .  S
O5           C11   1.270       .  A
O6          Ni24   1.914       .  S
O6            C8   1.267       .  A
Ni7          O10   1.921       .  S
Ni7          O12   1.909       .  S
C8           O18   1.272       .  A
C8          C650   1.486       .  S
O9          Ni25   1.897       .  S
O9           C15   1.266       .  A
O10          C15   1.276       .  A
C11         C217   1.479       .  S
O12          C14   1.274       .  A
O13         Ni24   1.913       .  S
O13         C444   1.272       .  A
C14          O20   1.282       .  A
C14          C30   1.488       .  S
C15         C214   1.466       .  S
H16          O17   0.966       .  S
O17         Ni25   1.896       .  S
O17         Ni19   1.909       .  S
O17         Ni24   1.915       .  S
O18         Ni19   1.950       .  S
Ni19         O23   1.897       .  S
Ni19         O21   1.929       .  S
O20         Ni25   1.957       .  S
O21         C444   1.275       .  A
C22          O23   1.266       .  A
C22          C72   1.481       .  S
C27         C201   1.528       .  S
C27         C206   1.522       .  S
C27         C209   1.533       .  S
C27         C213   1.522       .  S
C28          C29   1.521       .  S
C28          C34   1.519       .  S
C28          C32   1.532       .  S
C29          H36   1.088       .  S
C29          C30   1.360       .  D
C30          C31   1.556       .  S
C31          C35   1.559       .  S
C31          C33   1.563       .  S
C31          H37   1.110       .  S
C32          H38   1.086       .  S
C32          C33   1.376       .  D
C33         C281   1.487       .  S
C34          H39   1.087       .  S
C34          C35   1.351       .  D
C35         C425   1.484       .  S
O40         Ni46   1.944       .  S
O40          C61   1.280       .  A
O41         Ni64   1.924       .  S
O41          C50   1.276       .  A
O42         Ni46   1.875       .  S
O42         Ni64   1.901       .  S
O42         Ni58   1.912       .  S
O42         H285   0.966   1_554  S
C43          O60   1.283       .  A
C43          O52   1.258       .  A
C43         C507   1.522   1_545  S
O44         Ni63   1.900       .  S
O44          C50   1.264       .  A
O45         Ni63   1.932       .  S
O45          C47   1.275       .  A
Ni46         O49   1.934   1_554  S
Ni46         O51   1.919       .  S
C47          O57   1.273       .  A
C47         C409   1.481   1_544  S
O48         Ni64   1.881       .  S
O48          C54   1.268       .  A
O49          C54   1.284   1_556  A
C50         C197   1.469       .  S
O51          C53   1.273       .  A
O52         Ni63   1.870       .  S
C53          O59   1.282       .  A
C53          C69   1.495       .  S
C54         C414   1.453   1_554  S
H55          O56   0.967       .  S
O56         Ni64   1.879       .  S
O56         Ni58   1.919       .  S
O56         Ni63   1.861       .  S
O57         Ni58   1.934       .  S
Ni58         O62   1.917       .  S
Ni58         O60   1.986       .  S
O59         Ni64   1.966       .  S
C61          O62   1.281       .  A
C61         C253   1.488   1_554  S
H65         O262   0.967       .  S
C66         C181   1.525       .  S
C66         C185   1.522       .  S
C66         C190   1.528       .  S
C66         C193   1.528       .  S
C67         C483   1.519       .  S
C67          C68   1.532       .  S
C67          C73   1.538       .  S
C67          C71   1.522       .  S
C68          H75   1.086       .  S
C68          C69   1.378       .  D
C69          C70   1.564       .  S
C70          C74   1.548       .  S
C70          C72   1.552       .  S
C70          H76   1.110       .  S
C71          H77   1.087       .  S
C71          C72   1.370       .  D
C73          H78   1.086       .  S
C73          C74   1.344       .  D
C74         C186   1.487       .  S
O79         Ni85   1.920       .  S
O79         C100   1.267       .  A
O80        Ni103   1.921       .  S
O80          C89   1.274       .  A
O81         Ni85   1.904       .  S
O81        Ni103   1.916       .  S
O81         Ni97   1.916       .  S
O81         H104   0.966       .  S
C82          O99   1.275       .  A
C82          O91   1.272       .  A
C82         C106   1.496       .  S
O83        Ni102   1.917       .  S
O83          C89   1.270       .  A
O84        Ni102   1.913       .  S
O84          C86   1.268       .  A
Ni85         O88   1.919   1_545  S
Ni85         O90   1.903   1_545  S
C86          O96   1.270       .  A
C86         C178   1.481       .  S
O87        Ni103   1.902       .  S
O87         C533   1.269   1_545  A
O88         C533   1.276       .  A
C89         C202   1.484       .  S
O90          C92   1.272       .  A
O91        Ni102   1.913       .  S
C92          O98   1.282   1_565  A
C92         C548   1.488       .  S
C93         O527   1.267       .  A
C93         O528   1.277       .  A
C93         C173   1.467       .  S
H94          O95   0.966       .  S
O95        Ni103   1.898       .  S
O95         Ni97   1.913       .  S
O95        Ni102   1.913       .  S
O96         Ni97   1.943       .  S
Ni97        O101   1.912       .  S
Ni97         O99   1.928       .  S
O98        Ni103   1.959       .  S
C100        O101   1.267       .  A
C100        C150   1.480       .  S
C105        C169   1.516       .  S
C105        C174   1.525       .  S
C105        C177   1.531       .  S
C105        C218   1.523       .  S
C106        C107   1.517       .  S
C106        C112   1.526       .  S
C106        C110   1.533       .  S
C107        H114   1.089       .  S
C107        C108   1.359       .  D
C108        C532   1.487       .  S
C108        C109   1.556   1_554  S
C109        C113   1.544       .  S
C109        C111   1.556       .  S
C109        H115   1.110       .  S
C110        H116   1.086       .  S
C110        C111   1.382   1_554  D
C111        C359   1.487       .  S
C112        H117   1.088       .  S
C112        C113   1.355   1_554  D
C113        C390   1.473       .  S
O118       Ni124   1.926       .  S
O118        C139   1.274       .  A
O119       Ni142   1.947       .  S
O119        C128   1.274       .  A
O120       Ni124   1.897       .  S
O120       Ni142   1.907       .  S
O120       Ni136   1.926       .  S
O120        H143   0.966       .  S
C121        O138   1.287       .  A
C121        O130   1.272       .  A
C121        C145   1.519       .  S
O122       Ni141   1.881       .  S
O122        C128   1.254       .  A
O123       Ni141   1.891       .  S
O123        C125   1.262       .  A
Ni124       O567   1.919       .  S
Ni124       O569   1.928       .  S
C125        O135   1.261       .  A
C125        C161   1.473       .  S
O126       Ni142   1.918       .  S
O126        C572   1.279       .  A
O127       Ni564   1.925       .  S
O127        C132   1.278       .  A
C128        C182   1.478   1_455  S
O129       Ni564   1.932       .  S
O129        C131   1.275       .  A
O130       Ni141   1.871       .  S
C131        O577   1.282       .  A
C131        C147   1.502       .  S
C132        O566   1.277       .  A
C132        C385   1.457       .  S
H133        O134   0.967       .  S
O134       Ni142   1.920       .  S
O134       Ni136   1.911       .  S
O134       Ni141   1.903       .  S
O135       Ni136   1.918       .  S
Ni136       O140   1.899       .  S
Ni136       O138   1.966       .  S
O137       Ni142   1.963       .  S
O137        C571   1.282       .  A
C139        O140   1.267       .  A
C139        C331   1.483       .  S
C144        C157   1.527       .  S
C144        C162   1.526       .  S
C144        C166   1.515       .  S
C144        C198   1.522       .  S
C145        C146   1.531       .  S
C145        C151   1.529       .  S
C145        C149   1.532       .  S
C146        H153   1.087       .  S
C146        C147   1.368       .  D
C147        C148   1.563       .  S
C148        C152   1.553       .  S
C148        C150   1.552       .  S
C148        H154   1.110       .  S
C149        H155   1.086       .  S
C149        C150   1.377       .  D
C151        H156   1.085       .  S
C151        C152   1.351       .  D
C152        C158   1.493       .  S
C157        H159   1.085       .  S
C157        C158   1.368       .  D
C158        H160   1.085       .  S
C161        H383   1.085       .  S
C161        C382   1.345       .  D
C162        H164   1.089       .  S
C162        C381   1.345       .  D
H163        C381   1.085       .  S
C165        C352   1.456   1_554  S
C165        H167   1.085       .  S
C165        C166   1.342       .  D
C166        H168   1.087       .  S
C169        H171   1.087       .  S
C169        C170   1.359       .  D
C170        H172   1.086       .  S
C170        C333   1.474       .  S
C173        H615   1.087       .  S
C173        C174   1.338       .  D
C174        H176   1.088       .  S
H175        C613   1.087       .  S
C177        H179   1.088       .  S
C177        C178   1.346       .  D
C178        H180   1.087       .  S
C181        H183   1.087       .  S
C181        C182   1.366       .  D
C182        H184   1.086       .  S
C185        H187   1.086       .  S
C185        C186   1.370       .  D
C186        H188   1.086       .  S
C189        C267   1.485   1_565  S
C189        H411   1.083       .  S
C189        C630   1.356       .  D
C190        H192   1.088       .  S
C190        C629   1.336       .  D
H191        C409   1.082   1_554  S
C193        H195   1.089       .  S
C193        C194   1.339       .  D
C194        C274   1.473       .  S
C194        H416   1.086       .  S
H196        C414   1.083   1_554  S
C197        H199   1.086   1_655  S
C197        C198   1.335   1_655  D
C198        H200   1.089   1_455  S
C201        H203   1.087       .  S
C201        C202   1.357       .  D
C202        H204   1.086       .  S
C205        H207   1.086       .  S
C205        C206   1.366       .  D
C205        C255   1.483   1_554  S
C206        H208   1.086       .  S
C209        H211   1.087       .  S
C209        C210   1.345       .  D
C210        C448   1.482   1_545  S
C210        H212   1.087       .  S
C213        H215   1.088       .  S
C213        C214   1.337       .  D
C214        H216   1.087       .  S
C217        H219   1.086       .  S
C217        C218   1.353       .  D
C218        H220   1.087       .  S
O221       Ni227   1.923       .  S
O221        C242   1.268       .  A
O222       Ni245   1.909       .  S
O222        C231   1.269       .  A
O223       Ni227   1.909       .  S
O223       Ni245   1.915       .  S
O223       Ni239   1.914       .  S
O223        H246   0.966       .  S
C224        O681   1.272   1_545  A
C224        O673   1.271       .  A
C224        C248   1.489       .  S
O225       Ni244   1.913       .  S
O225        C231   1.269       .  A
O226       Ni244   1.916       .  S
O226        C228   1.267       .  A
Ni227       O230   1.921       .  S
Ni227       O232   1.906       .  S
C228        O238   1.267       .  A
C228        C870   1.483       .  S
O229       Ni245   1.895       .  S
O229        C235   1.265       .  A
O230        C235   1.276       .  A
C231        C437   1.475       .  S
O232        C234   1.271       .  A
O233       Ni244   1.911       .  S
O233        C664   1.272       .  A
C234        O240   1.283       .  A
C234        C250   1.490       .  S
C235        C434   1.465       .  S
H236        O237   0.966       .  S
O237       Ni245   1.897       .  S
O237       Ni239   1.907       .  S
O237       Ni244   1.919       .  S
O238       Ni239   1.938       .  S
Ni239       O243   1.887       .  S
Ni239       O241   1.916       .  S
O240       Ni245   1.963       .  S
O241        C664   1.272       .  A
C242        O243   1.260       .  A
C242        C292   1.467       .  S
C247        C421   1.529       .  S
C247        C426   1.524       .  S
C247        C429   1.535       .  S
C247        C433   1.522       .  S
C248        C249   1.522       .  S
C248        C254   1.519       .  S
C248        C252   1.531       .  S
C249        H256   1.088       .  S
C249        C250   1.360       .  D
C250        C251   1.557       .  S
C251        C255   1.557       .  S
C251        C253   1.565       .  S
C251        H257   1.110   1_556  S
C252        H258   1.086       .  S
C252        C253   1.376       .  D
C254        H259   1.087       .  S
C254        C255   1.351       .  D
O260       Ni266   1.951       .  S
O260        C281   1.281       .  A
O261       Ni284   1.923       .  S
O261        C270   1.276       .  A
O262       Ni266   1.881       .  S
O262       Ni284   1.905       .  S
O262       Ni278   1.918       .  S
C263        O280   1.285       .  A
C263        O272   1.258       .  A
C263        C727   1.526   1_545  S
O264       Ni283   1.894       .  S
O264        C270   1.262       .  A
O265       Ni283   1.932       .  S
O265        C267   1.276       .  A
Ni266       O269   1.956       .  S
Ni266       O271   1.926       .  S
C267        O277   1.275       .  A
O268       Ni284   1.894       .  S
O268        C274   1.272       .  A
O269        C274   1.287       .  A
C270        C417   1.464       .  S
O271        C273   1.272       .  A
O272       Ni283   1.871       .  S
C273        O279   1.279       .  A
C273        C289   1.493       .  S
H275        O276   0.966       .  S
O276       Ni284   1.883       .  S
O276       Ni278   1.914       .  S
O276       Ni283   1.860       .  S
O277       Ni278   1.939       .  S
Ni278       O282   1.910       .  S
Ni278       O280   1.990       .  S
O279       Ni284   1.964       .  S
C281        O282   1.279       .  A
C286        C401   1.529       .  S
C286        C405   1.542       .  S
C286        C410   1.543       .  S
C286        C413   1.530       .  S
C287        C703   1.486       .  S
C287        C288   1.525       .  S
C287        C293   1.529       .  S
C287        C291   1.526       .  S
C288        H295   1.088       .  S
C288        C289   1.355       .  D
C289        C290   1.562       .  S
C290        C294   1.557       .  S
C290        C292   1.543       .  S
C290        H296   1.111       .  S
C291        H297   1.086       .  S
C291        C292   1.376       .  D
C293        H298   1.088       .  S
C293        C294   1.355       .  D
C294        C406   1.485       .  S
O299       Ni305   1.924       .  S
O299        C320   1.270       .  A
O300       Ni323   1.919       .  S
O300        C309   1.273       .  A
O301       Ni305   1.902       .  S
O301       Ni323   1.916       .  S
O301       Ni317   1.917       .  S
O301        H324   0.966       .  S
C302        O319   1.277       .  A
C302        O311   1.271       .  A
C302        C326   1.494       .  S
O303       Ni322   1.919       .  S
O303        C309   1.271       .  A
O304       Ni322   1.913       .  S
O304        C306   1.268       .  A
Ni305       O308   1.922   1_545  S
Ni305       O310   1.909   1_545  S
C306        O316   1.269       .  A
C306        C398   1.479       .  S
O307       Ni323   1.903       .  S
O307        C753   1.268   1_545  A
O308        C753   1.277       .  A
C309        C422   1.485       .  S
O310        C312   1.274       .  A
O311       Ni322   1.912       .  S
C312        O318   1.280   1_565  A
C312        C768   1.487       .  S
C313        O747   1.267       .  A
C313        O748   1.277       .  A
C313        C393   1.466       .  S
H314        O315   0.966       .  S
O315       Ni323   1.897       .  S
O315       Ni317   1.913       .  S
O315       Ni322   1.911       .  S
O316       Ni317   1.939       .  S
Ni317       O321   1.914       .  S
Ni317       O319   1.927       .  S
O318       Ni323   1.953       .  S
C320        O321   1.267       .  A
C320        C370   1.485       .  S
C325        C389   1.514       .  S
C325        C394   1.524       .  S
C325        C397   1.530       .  S
C325        C438   1.520       .  S
C326        C327   1.519       .  S
C326        C332   1.526       .  S
C326        C330   1.530       .  S
C327        H334   1.088       .  S
C327        C328   1.360       .  D
C328        C752   1.487       .  S
C328        C329   1.555       .  S
C329        C333   1.546       .  S
C329        C331   1.555       .  S
C329        H335   1.110       .  S
C330        H336   1.086       .  S
C330        C331   1.380       .  D
C332        H337   1.088       .  S
C332        C333   1.354       .  D
O338       Ni344   1.930       .  S
O338        C359   1.278       .  A
O339       Ni362   1.942       .  S
O339        C348   1.272       .  A
O340       Ni344   1.892       .  S
O340       Ni362   1.898       .  S
O340       Ni356   1.920       .  S
O340        H363   0.966       .  S
C341        O358   1.288       .  A
C341        O350   1.275       .  A
C341        C365   1.528       .  S
O342       Ni361   1.901       .  S
O342        C348   1.262       .  A
O343       Ni361   1.905       .  S
O343        C345   1.265       .  A
Ni344       O787   1.923       .  S
Ni344       O789   1.935       .  S
C345        O355   1.262       .  A
C345        C381   1.474   1_556  S
O346       Ni362   1.899       .  S
O346        C792   1.276       .  A
O347       Ni784   1.924       .  S
O347        C352   1.277       .  A
C348        C402   1.490   1_455  S
O349       Ni784   1.933       .  S
O349        C351   1.277       .  A
O350       Ni361   1.888       .  S
C351        O797   1.280       .  A
C351        C367   1.500       .  S
C352        O786   1.275       .  A
H353        O354   0.966       .  S
O354       Ni362   1.915       .  S
O354       Ni356   1.910       .  S
O354       Ni361   1.893       .  S
O355       Ni356   1.917       .  S
Ni356       O360   1.901       .  S
Ni356       O358   1.970       .  S
O357       Ni362   1.958       .  S
O357        C791   1.280       .  A
C359        O360   1.269       .  A
C364        C377   1.526       .  S
C364        C382   1.522       .  S
C364        C386   1.517       .  S
C364        C418   1.519       .  S
C365        C366   1.531       .  S
C365        C371   1.531       .  S
C365        C369   1.539       .  S
C366        H373   1.087       .  S
C366        C367   1.370       .  D
C367        C368   1.562       .  S
C368        C372   1.551       .  S
C368        C370   1.548       .  S
C368        H374   1.110       .  S
C369        H375   1.086       .  S
C369        C370   1.379       .  D
C371        H376   1.085       .  S
C371        C372   1.353       .  D
C372        C378   1.492       .  S
C377        H379   1.086       .  S
C377        C378   1.365       .  D
C378        H380   1.085       .  S
C382        H384   1.089       .  S
C385        H387   1.085       .  S
C385        C386   1.341       .  D
C386        H388   1.087       .  S
C389        H391   1.087       .  S
C389        C390   1.358       .  D
C390        H392   1.086       .  S
C393        H835   1.087       .  S
C393        C394   1.338       .  D
C394        H396   1.088       .  S
H395        C833   1.087       .  S
C397        H399   1.088       .  S
C397        C398   1.344       .  D
C398        H400   1.087       .  S
C401        H403   1.087       .  S
C401        C402   1.356       .  D
C402        H404   1.085       .  S
C405        H407   1.088       .  S
C405        C406   1.361       .  D
C406        H408   1.084       .  S
C409        C850   1.355       .  D
C410        H412   1.086       .  S
C410        C849   1.358       .  D
C413        H415   1.082       .  S
C413        C414   1.335       .  D
C417        H419   1.086   1_655  S
C417        C418   1.332   1_655  D
C418        H420   1.089   1_455  S
C421        H423   1.087       .  S
C421        C422   1.357       .  D
C422        H424   1.086       .  S
C425        H427   1.086       .  S
C425        C426   1.368       .  D
C426        H428   1.086       .  S
C429        H431   1.087       .  S
C429        C430   1.346       .  D
C430        C668   1.483   1_545  S
C430        H432   1.087       .  S
C433        H435   1.088       .  S
C433        C434   1.337       .  D
C434        H436   1.087       .  S
C437        H439   1.086       .  S
C437        C438   1.352       .  D
C438        H440   1.087       .  S
O441       Ni447   1.924       .  S
O441        C462   1.269       .  A
O442       Ni465   1.907       .  S
O442        C451   1.268       .  A
O443       Ni447   1.907       .  S
O443       Ni465   1.916       .  S
O443       Ni459   1.913       .  S
O443        H466   0.966       .  S
C444        C468   1.497       .  S
O445       Ni464   1.914       .  S
O445        C451   1.270       .  A
O446       Ni464   1.915       .  S
O446        C448   1.267       .  A
Ni447       O450   1.915       .  S
Ni447       O452   1.910       .  S
C448        O458   1.267       .  A
O449       Ni465   1.897       .  S
O449        C455   1.266       .  A
O450        C455   1.275       .  A
C451        C657   1.474       .  S
O452        C454   1.274       .  A
O453       Ni464   1.912   1_545  S
C454        O460   1.279       .  A
C454        C470   1.488       .  S
C455        C654   1.463       .  S
H456        O457   0.967       .  S
O457       Ni465   1.893       .  S
O457       Ni459   1.903       .  S
O457       Ni464   1.913       .  S
O458       Ni459   1.936       .  S
Ni459       O463   1.885       .  S
Ni459       O461   1.914       .  S
O460       Ni465   1.953       .  S
C462        O463   1.259       .  A
C462        C512   1.470       .  S
C467        C641   1.531       .  S
C467        C646   1.523       .  S
C467        C649   1.536       .  S
C467        C653   1.519       .  S
C468        C469   1.518       .  S
C468        C474   1.521       .  S
C468        C472   1.535       .  S
C469        H476   1.089       .  S
C469        C470   1.359       .  D
C470        C471   1.558       .  S
C471        C475   1.555       .  S
C471        C473   1.555       .  S
C471        H477   1.110       .  S
C472        H478   1.086       .  S
C472        C473   1.384       .  D
C473        C721   1.487       .  S
C474        H479   1.088       .  S
C474        C475   1.351       .  D
C475        C865   1.481       .  S
O480       Ni486   1.947       .  S
O480        C501   1.281       .  A
O481       Ni504   1.922       .  S
O481        C490   1.275       .  A
O482       Ni486   1.874       .  S
O482       Ni504   1.902       .  S
O482       Ni498   1.908       .  S
O482        H725   0.966   1_554  S
C483        O500   1.281       .  A
C483        O492   1.256       .  A
O484       Ni503   1.903       .  S
O484        C490   1.264       .  A
O485       Ni503   1.943       .  S
O485        C487   1.279       .  A
Ni486       O489   1.937       .  S
Ni486       O491   1.917       .  S
C487        O497   1.272       .  A
C487        C849   1.487   1_554  S
O488       Ni504   1.873       .  S
O488        C494   1.266       .  A
O489        C494   1.285       .  A
C490        C637   1.470       .  S
O491        C493   1.272       .  A
O492       Ni503   1.875       .  S
C493        O499   1.281       .  A
C493        C509   1.493       .  S
C494        C854   1.447   1_554  S
H495        O496   0.967       .  S
O496       Ni504   1.876       .  S
O496       Ni498   1.924       .  S
O496       Ni503   1.863       .  S
O497       Ni498   1.930       .  S
Ni498       O502   1.915       .  S
Ni498       O500   1.985       .  S
O499       Ni504   1.965       .  S
C501        O502   1.280       .  A
C501        C693   1.488   1_554  S
H505        O702   0.966       .  S
C506        C621   1.530       .  S
C506        C625   1.532       .  S
C506        C630   1.544       .  S
C506        C633   1.528       .  S
C507        C508   1.533       .  S
C507        C513   1.542       .  S
C507        C511   1.528       .  S
C508        H515   1.086       .  S
C508        C509   1.376       .  D
C509        C510   1.558       .  S
C510        C514   1.544       .  S
C510        C512   1.535       .  S
C510        H516   1.111       .  S
C511        H517   1.086       .  S
C511        C512   1.372       .  D
C513        H518   1.085       .  S
C513        C514   1.345       .  D
C514        C626   1.480       .  S
O519       Ni525   1.927       .  S
O519        C540   1.270       .  A
O520       Ni543   1.920       .  S
O520        C529   1.272       .  A
O521       Ni525   1.904       .  S
O521       Ni543   1.918       .  S
O521       Ni537   1.918       .  S
O521        H544   0.966       .  S
C522        O539   1.277       .  A
C522        O531   1.272       .  A
C522        C546   1.495       .  S
O523       Ni542   1.922       .  S
O523        C529   1.271       .  A
O524       Ni542   1.914       .  S
O524        C526   1.268       .  A
Ni525       O528   1.926       .  S
Ni525       O530   1.908       .  S
C526        O536   1.269       .  A
C526        C618   1.481       .  S
O527       Ni543   1.899       .  S
C529        C642   1.487       .  S
O530        C532   1.274       .  A
O531       Ni542   1.913       .  S
C532        O538   1.281       .  A
C533        C613   1.465       .  S
H534        O535   0.966       .  S
O535       Ni543   1.897       .  S
O535       Ni537   1.915       .  S
O535       Ni542   1.914       .  S
O536       Ni537   1.939       .  S
Ni537       O541   1.918       .  S
Ni537       O539   1.927       .  S
O538       Ni543   1.956       .  S
C540        O541   1.268       .  A
C540        C590   1.487       .  S
C545        C609   1.515       .  S
C545        C614   1.522       .  S
C545        C617   1.531       .  S
C545        C658   1.519       .  S
C546        C547   1.518       .  S
C546        C552   1.526       .  S
C546        C550   1.531       .  S
C547        H554   1.089       .  S
C547        C548   1.360       .  D
C548        C549   1.557       .  S
C549        C553   1.544   1_554  S
C549        C551   1.559   1_554  S
C549        H555   1.110   1_554  S
C550        H556   1.086       .  S
C550        C551   1.379   1_554  D
C551        C799   1.487       .  S
C552        H557   1.088       .  S
C552        C553   1.355   1_554  D
C553        C830   1.472       .  S
O558       Ni564   1.928   1_565  S
O558        C579   1.276       .  A
O559       Ni582   1.948       .  S
O559        C568   1.274       .  A
O560       Ni564   1.894   1_565  S
O560       Ni582   1.901       .  S
O560       Ni576   1.918       .  S
O560        H583   0.966       .  S
C561        O578   1.287       .  A
C561        O570   1.276       .  A
C561        C585   1.527       .  S
O562       Ni581   1.898       .  S
O562        C568   1.260       .  A
O563       Ni581   1.902       .  S
O563        C565   1.264       .  A
C565        O575   1.265       .  A
C565        C601   1.479       .  S
O566       Ni582   1.900   1_545  S
O567        C572   1.276       .  A
C568        C622   1.491   1_455  S
O569        C571   1.275       .  A
O570       Ni581   1.886       .  S
C571        C587   1.501       .  S
C572        C825   1.464       .  S
H573        O574   0.966       .  S
O574       Ni582   1.914       .  S
O574       Ni576   1.909       .  S
O574       Ni581   1.890       .  S
O575       Ni576   1.927       .  S
Ni576       O580   1.898       .  S
Ni576       O578   1.967       .  S
O577       Ni582   1.965   1_545  S
C579        O580   1.269       .  A
C579        C771   1.483       .  S
C584        C597   1.527       .  S
C584        C602   1.528       .  S
C584        C606   1.515       .  S
C584        C638   1.523       .  S
C585        C586   1.531       .  S
C585        C591   1.530       .  S
C585        C589   1.539       .  S
C586        H593   1.087       .  S
C586        C587   1.369       .  D
C587        C588   1.563       .  S
C588        C592   1.552       .  S
C588        C590   1.551       .  S
C588        H594   1.110       .  S
C589        H595   1.086       .  S
C589        C590   1.380       .  D
C591        H596   1.085       .  S
C591        C592   1.351       .  D
C592        C598   1.493       .  S
C597        H599   1.085       .  S
C597        C598   1.367       .  D
C598        H600   1.085       .  S
C601        H823   1.085       .  S
C601        C822   1.349       .  D
C602        H604   1.089       .  S
C602        C821   1.348       .  D
H603        C821   1.085       .  S
C605        C792   1.456   1_554  S
C605        H607   1.085       .  S
C605        C606   1.342       .  D
C606        H608   1.087       .  S
C609        H611   1.086       .  S
C609        C610   1.359       .  D
C610        H612   1.086       .  S
C610        C773   1.474       .  S
C613        C614   1.339       .  D
C614        H616   1.088       .  S
C617        H619   1.087       .  S
C617        C618   1.345       .  D
C618        H620   1.087       .  S
C621        H623   1.087       .  S
C621        C622   1.359       .  D
C622        H624   1.086       .  S
C625        H627   1.087       .  S
C625        C626   1.362       .  D
C626        H628   1.084       .  S
C629        C707   1.477       .  S
C629        H851   1.087       .  S
C630        H632   1.086       .  S
H631        C849   1.082   1_554  S
C633        H635   1.084       .  S
C633        C634   1.329       .  D
C634        C714   1.455       .  S
C634        H856   1.082       .  S
H636        C854   1.082   1_554  S
C637        H639   1.086   1_655  S
C637        C638   1.337   1_655  D
C638        H640   1.089   1_455  S
C641        H643   1.087       .  S
C641        C642   1.356       .  D
C642        H644   1.086       .  S
C645        H647   1.086       .  S
C645        C646   1.368       .  D
C645        C695   1.484   1_554  S
C646        H648   1.086       .  S
C649        H651   1.087       .  S
C649        C650   1.350       .  D
C650        H652   1.087       .  S
C653        H655   1.088       .  S
C653        C654   1.337       .  D
C654        H656   1.087       .  S
C657        H659   1.086       .  S
C657        C658   1.351       .  D
C658        H660   1.087       .  S
O661       Ni667   1.931       .  S
O661        C682   1.270       .  A
O662       Ni685   1.910       .  S
O662        C671   1.268       .  A
O663       Ni667   1.912       .  S
O663       Ni685   1.918       .  S
O663       Ni679   1.912       .  S
O663        H686   0.966       .  S
C664        C688   1.489       .  S
O665       Ni684   1.911       .  S
O665        C671   1.268       .  A
O666       Ni684   1.916       .  S
O666        C668   1.267       .  A
Ni667       O670   1.925       .  S
Ni667       O672   1.911       .  S
C668        O678   1.268       .  A
O669       Ni685   1.889       .  S
O669        C675   1.264       .  A
O670        C675   1.276       .  A
C671        C877   1.475       .  S
O672        C674   1.272       .  A
O673       Ni684   1.910   1_545  S
C674        O680   1.282       .  A
C674        C690   1.490       .  S
C675        C874   1.462       .  S
H676        O677   0.966       .  S
O677       Ni685   1.897       .  S
O677       Ni679   1.908       .  S
O677       Ni684   1.921       .  S
O678       Ni679   1.939       .  S
Ni679       O683   1.889       .  S
Ni679       O681   1.916       .  S
O680       Ni685   1.959       .  S
C682        O683   1.261       .  A
C682        C732   1.474       .  S
C687        C861   1.523       .  S
C687        C866   1.518       .  S
C687        C869   1.534       .  S
C687        C873   1.521       .  S
C688        C689   1.522       .  S
C688        C694   1.519       .  S
C688        C692   1.532       .  S
C689        H696   1.088       .  S
C689        C690   1.360       .  D
C690        C691   1.557       .  S
C691        C695   1.559       .  S
C691        C693   1.563       .  S
C691        H697   1.110   1_556  S
C692        H698   1.086       .  S
C692        C693   1.376       .  D
C694        H699   1.087       .  S
C694        C695   1.351       .  D
O700       Ni706   1.937       .  S
O700        C721   1.274       .  A
O701       Ni724   1.917       .  S
O701        C710   1.273       .  A
O702       Ni706   1.903       .  S
O702       Ni724   1.914       .  S
O702       Ni718   1.920       .  S
C703        O720   1.277       .  A
C703        O712   1.261       .  A
O704       Ni723   1.897       .  S
O704        C710   1.262       .  A
O705       Ni723   1.915       .  S
O705        C707   1.272       .  A
Ni706       O709   1.922       .  S
Ni706       O711   1.914       .  S
C707        O717   1.266       .  A
O708       Ni724   1.881       .  S
O708        C714   1.260       .  A
O709        C714   1.277       .  A
C710        C857   1.467       .  S
O711        C713   1.275       .  A
O712       Ni723   1.888       .  S
C713        O719   1.288       .  A
C713        C729   1.498       .  S
H715        O716   0.965       .  S
O716       Ni724   1.907       .  S
O716       Ni718   1.919       .  S
O716       Ni723   1.923       .  S
O717       Ni718   1.934       .  S
Ni718       O722   1.904       .  S
Ni718       O720   1.935       .  S
O719       Ni724   1.970       .  S
C721        O722   1.266       .  A
C726        C841   1.527       .  S
C726        C845   1.532       .  S
C726        C850   1.541       .  S
C726        C853   1.524       .  S
C727        C728   1.532       .  S
C727        C733   1.541       .  S
C727        C731   1.531       .  S
C728        H735   1.087       .  S
C728        C729   1.378       .  D
C729        C730   1.557       .  S
C730        C734   1.545       .  S
C730        C732   1.539       .  S
C730        H736   1.111       .  S
C731        H737   1.086       .  S
C731        C732   1.374       .  D
C733        H738   1.085       .  S
C733        C734   1.347       .  D
C734        C846   1.481       .  S
O739       Ni745   1.928       .  S
O739        C760   1.271       .  A
O740       Ni763   1.917       .  S
O740        C749   1.271       .  A
O741       Ni745   1.904       .  S
O741       Ni763   1.918       .  S
O741       Ni757   1.918       .  S
O741        H764   0.966       .  S
C742        O759   1.276       .  A
C742        O751   1.270       .  A
C742        C766   1.491       .  S
O743       Ni762   1.913       .  S
O743        C749   1.269       .  A
O744       Ni762   1.911       .  S
O744        C746   1.268       .  A
Ni745       O748   1.925       .  S
Ni745       O750   1.909       .  S
C746        O756   1.269       .  A
C746        C838   1.479       .  S
O747       Ni763   1.898       .  S
C749        C862   1.479       .  S
O750        C752   1.274       .  A
O751       Ni762   1.908       .  S
C752        O758   1.280       .  A
C753        C833   1.466       .  S
H754        O755   0.966       .  S
O755       Ni763   1.895       .  S
O755       Ni757   1.912       .  S
O755       Ni762   1.913       .  S
O756       Ni757   1.941       .  S
Ni757       O761   1.913       .  S
Ni757       O759   1.925       .  S
O758       Ni763   1.953       .  S
C760        O761   1.266       .  A
C760        C810   1.485       .  S
C765        C829   1.513       .  S
C765        C834   1.524       .  S
C765        C837   1.529       .  S
C765        C878   1.519       .  S
C766        C767   1.516       .  S
C766        C772   1.526       .  S
C766        C770   1.528       .  S
C767        H774   1.089       .  S
C767        C768   1.359       .  D
C768        C769   1.558       .  S
C769        C773   1.546       .  S
C769        C771   1.558       .  S
C769        H775   1.110       .  S
C770        H776   1.086       .  S
C770        C771   1.379       .  D
C772        H777   1.088       .  S
C772        C773   1.354       .  D
O778       Ni784   1.927   1_565  S
O778        C799   1.276       .  A
O779       Ni802   1.943       .  S
O779        C788   1.272       .  A
O780       Ni784   1.894   1_565  S
O780       Ni802   1.900       .  S
O780       Ni796   1.924       .  S
O780        H803   0.966       .  S
C781        O798   1.290       .  A
C781        O790   1.276       .  A
C781        C805   1.531       .  S
O782       Ni801   1.898       .  S
O782        C788   1.261       .  A
O783       Ni801   1.904       .  S
O783        C785   1.265       .  A
C785        O795   1.264       .  A
C785        C821   1.478   1_556  S
O786       Ni802   1.898   1_545  S
O787        C792   1.278       .  A
C788        C842   1.487   1_455  S
O789        C791   1.277       .  A
O790       Ni801   1.889       .  S
C791        C807   1.501       .  S
H793        O794   0.966       .  S
O794       Ni802   1.915       .  S
O794       Ni796   1.906       .  S
O794       Ni801   1.888       .  S
O795       Ni796   1.924       .  S
Ni796       O800   1.905       .  S
Ni796       O798   1.975       .  S
O797       Ni802   1.958   1_545  S
C799        O800   1.271       .  A
C804        C817   1.529       .  S
C804        C822   1.529       .  S
C804        C826   1.524       .  S
C804        C858   1.526       .  S
C805        C806   1.532       .  S
C805        C811   1.532       .  S
C805        C809   1.540       .  S
C806        H813   1.087       .  S
C806        C807   1.370       .  D
C807        C808   1.561       .  S
C808        C812   1.551       .  S
C808        C810   1.547       .  S
C808        H814   1.110       .  S
C809        H815   1.086       .  S
C809        C810   1.380       .  D
C811        H816   1.085       .  S
C811        C812   1.354       .  D
C812        C818   1.494       .  S
C817        H819   1.085       .  S
C817        C818   1.367       .  D
C818        H820   1.085       .  S
C822        H824   1.089       .  S
C825        H827   1.086       .  S
C825        C826   1.344       .  D
C826        H828   1.087       .  S
C829        H831   1.087       .  S
C829        C830   1.358       .  D
C830        H832   1.086       .  S
C833        C834   1.339       .  D
C834        H836   1.088       .  S
C837        H839   1.087       .  S
C837        C838   1.345       .  D
C838        H840   1.087       .  S
C841        H843   1.087       .  S
C841        C842   1.356       .  D
C842        H844   1.086   1_565  S
C845        H847   1.087       .  S
C845        C846   1.363       .  D
C846        H848   1.084       .  S
C850        H852   1.086       .  S
C853        H855   1.083       .  S
C853        C854   1.330       .  D
C857        H859   1.085   1_655  S
C857        C858   1.337   1_655  D
C858        H860   1.089   1_455  S
C861        H863   1.087       .  S
C861        C862   1.355       .  D
C862        H864   1.086       .  S
C865        H867   1.086       .  S
C865        C866   1.366       .  D
C866        H868   1.086       .  S
C869        H871   1.087       .  S
C869        C870   1.345       .  D
C870        H872   1.087       .  S
C873        H875   1.089       .  S
C873        C874   1.336       .  D
C874        H876   1.087       .  S
C877        H879   1.086       .  S
C877        C878   1.351       .  D
C878        H880   1.087       .  S
