geometry optimzed in LAMMPS
_audit_creation_date              2020-11-30 
_audit_creation_method            'lammps2cif' 
_symmetry_space_group_name_H-M    'P1' 
_symmetry_Int_Tables_number       1 
_symmetry_cell_setting            triclinic 
loop_ 
_symmetry_equiv_pos_as_xyz 
  x,y,z 
_cell_length_a                    41.06235208 
_cell_length_b                    27.40757101575695 
_cell_length_c                    42.94462328463589 
_cell_angle_alpha                 89.10396535228934 
_cell_angle_beta                  90.24465666864143 
_cell_angle_gamma                 90.76804434985078 
loop_ 
_atom_site_label 
_atom_site_type_symbol 
_atom_site_fract_x 
_atom_site_fract_y 
_atom_site_fract_z 
_atom_site_charge 
C1          C  0.66775911  0.24881493  0.38345950     0.85600
C2          C  0.69016562  0.29369492  0.38752090    -0.54700
C3          C  0.71620528  0.29593483  0.36787070     0.08500
C4          C  0.71792148  0.25209716  0.34600444     0.19400
C5          C  0.65860746  0.24890190  0.34862193    -0.55400
C6          C  0.68489085  0.25015298  0.32916690     0.08600
C7          C  0.69074590  0.20464903  0.38653559    -0.54900
C8          C  0.71739797  0.20709315  0.36777419     0.09200
H9          H  0.68565897  0.32154807  0.40464345     0.13700
H10         H  0.73879233  0.25377544  0.32966934    -0.00600
H11         H  0.63371002  0.24659175  0.34009639     0.14000
H12         H  0.68608850  0.17203456  0.40031112     0.13800
C13         C  0.66516799  0.23651727  0.14203611     0.85600
C14         C  0.68813937  0.19258440  0.13829762    -0.54700
C15         C  0.71517985  0.19351633  0.15685086     0.08500
C16         C  0.71741300  0.23931404  0.17693358     0.19400
C17         C  0.65806490  0.23824418  0.17696353    -0.55400
C18         C  0.68526551  0.24047145  0.19511725     0.08600
C19         C  0.68767009  0.28079706  0.13561481    -0.54900
C20         C  0.71559384  0.28257945  0.15321608     0.09200
H21         H  0.68493169  0.16399442  0.12145652     0.13700
H22         H  0.73859336  0.23841970  0.19280984    -0.00600
H23         H  0.63361933  0.23863891  0.18651276     0.14000
H24         H  0.68089252  0.30899043  0.11912079     0.13800
O25         O  0.54327814  0.20178486  0.04260700    -0.75300
O26         O  0.48095667  0.21506222  0.47970774    -0.75400
O27         O  0.54670436  0.21313501  0.48121513    -0.75400
O28         O  0.47758525  0.20656579  0.04172064    -0.75500
O29         O  0.48149969  0.28769248  0.04221995    -0.75400
O30         O  0.54885279  0.29441186  0.48191372    -0.75400
O31         O  0.48249515  0.29633375  0.48005227    -0.75400
O32         O  0.54732233  0.28265142  0.04322933    -0.75400
Ni33       Ni  0.51099290  0.20268235  0.01066779     1.25400
Ni34       Ni  0.51471421  0.28958320  0.01114529     1.25400
C35         C  0.55605050  0.24061451  0.05362880     0.86800
C36         C  0.47026390  0.25626336  0.47001076     0.86800
C37         C  0.55938839  0.25371637  0.47197430     0.86800
C38         C  0.46801609  0.24779075  0.05168905     0.87000
C39         C  0.35988973  0.26020636  0.38245544     0.85600
C40         C  0.33479721  0.21787013  0.38588376    -0.54700
C41         C  0.30810487  0.22123153  0.36715387     0.08500
C42         C  0.30904592  0.26657986  0.34560767     0.19400
C43         C  0.36823453  0.26010872  0.34746232    -0.55400
C44         C  0.34167920  0.26238428  0.32796725     0.08600
C45         C  0.33968534  0.30626680  0.38695489    -0.54900
C46         C  0.31372677  0.31035770  0.36734533     0.09200
H47         H  0.33740306  0.18579472  0.40044691     0.13700
H48         H  0.28701837  0.26975958  0.33075413    -0.00600
H49         H  0.39305789  0.25856049  0.33905118     0.14000
H50         H  0.34558006  0.33371391  0.40414341     0.13800
C51         C  0.35757688  0.25207465  0.13820587     0.85600
C52         C  0.33191612  0.29175825  0.13135820    -0.54700
C53         C  0.30597769  0.29119378  0.15099124     0.08500
C54         C  0.30731286  0.24980810  0.17558797     0.19400
C55         C  0.36630374  0.25865153  0.17290268    -0.55400
C56         C  0.34007484  0.25781198  0.19246281     0.08600
C57         C  0.33737765  0.20448933  0.13704937    -0.54900
C58         C  0.31142914  0.20275312  0.15684612     0.09200
H59         H  0.33284918  0.31862007  0.11275850     0.13700
H60         H  0.28613742  0.24842536  0.19152027    -0.00600
H61         H  0.39111173  0.26380799  0.18119772     0.14000
H62         H  0.34302098  0.17471991  0.12165520     0.13800
C63         C  0.85904599  0.00518650  0.38504653     0.85600
C64         C  0.83286578  0.45882326  0.38917577    -0.54700
C65         C  0.80641388  0.46106486  0.37005499     0.08500
C66         C  0.80915432  0.00724958  0.34690567     0.19400
C67         C  0.86815488  0.99926184  0.35039761    -0.55400
C68         C  0.84209568  0.00137200  0.33030463     0.08600
C69         C  0.83929907  0.05226336  0.38611474    -0.54900
C70         C  0.81328695  0.05363814  0.36619778     0.09200
H71         H  0.83604139  0.42721422  0.40417468     0.13700
H72         H  0.78784089  0.00822483  0.33099865    -0.00600
H73         H  0.89281752  0.99279023  0.34266506     0.14000
H74         H  0.84528317  0.08190866  0.40172176     0.13800
C75         C  0.85402321  0.49702233  0.14010460     0.85600
C76         C  0.83545719  0.04061950  0.13692871    -0.54700
C77         C  0.80802115  0.03480324  0.15431293     0.08500
C78         C  0.80147881  0.48813014  0.17419831     0.19400
C79         C  0.86044897  0.49518517  0.17567064    -0.55400
C80         C  0.83839082  0.98975986  0.19416604     0.08600
C81         C  0.83366257  0.45123598  0.13342900    -0.54900
C82         C  0.80673315  0.44593622  0.15143469     0.09200
H83         H  0.83801714  0.07232151  0.12188486     0.13700
H84         H  0.77869182  0.48567274  0.18745865    -0.00600
H85         H  0.88484901  0.49787017  0.18530875     0.14000
H86         H  0.84059991  0.42418171  0.11654561     0.13800
O87         O  0.04090914  0.45631362  0.04632991    -0.75300
O88         O  0.97805656  0.46075355  0.48399486    -0.75400
O89         O  0.04372305  0.45656395  0.48193249    -0.75400
O90         O  0.97515672  0.45823306  0.04445254    -0.75500
O91         O  0.98502974  0.04649185  0.04429711    -0.75400
O92         O  0.04755150  0.04058470  0.48213046    -0.75400
O93         O  0.98145480  0.04461560  0.48283385    -0.75400
O94         O  0.05112572  0.04240389  0.04339286    -0.75400
Ni95       Ni  0.00905674  0.45476836  0.01392878     1.25400
Ni96       Ni  0.01736616  0.04540032  0.01206493     1.25400
C97         C  0.06009535  0.00154481  0.05539806     0.86800
C98         C  0.96827853  0.00462506  0.47374224     0.86800
C99         C  0.05701516  0.99941244  0.47197089     0.86800
C100        C  0.97235432  0.00739728  0.05602491     0.87000
C101        C  0.16478864  0.50078584  0.38171481     0.85600
C102        C  0.19222872  0.05113718  0.39468867    -0.54700
C103        C  0.21891839  0.05520527  0.37585463     0.08500
C104        C  0.21797219  0.51140555  0.34888418     0.19400
C105        C  0.15876994  0.50385548  0.34641698    -0.55400
C106        C  0.18982777  0.01226133  0.33482477     0.08600
C107        C  0.18926653  0.45854328  0.38532710    -0.54900
C108        C  0.21772269  0.46449481  0.36926821     0.09200
H109        H  0.18652584  0.07832446  0.41183301     0.13700
H110        H  0.24021181  0.51709992  0.33474695    -0.00600
H111        H  0.13473121  0.50039942  0.33598396     0.14000
H112        H  0.18474795  0.42559551  0.39850505     0.13800
C113        C  0.16601552  0.99929007  0.14731579     0.85600
C114        C  0.18891163  0.45323063  0.13607952    -0.54700
C115        C  0.21637030  0.45348294  0.15387909     0.08500
C116        C  0.21855691  0.99994151  0.18212553     0.19400
C117        C  0.15912954  0.99896785  0.18251418    -0.55400
C118        C  0.18770432  0.49803087  0.19417214     0.08600
C119        C  0.18848863  0.04397679  0.14181656    -0.54900
C120        C  0.21601463  0.04451792  0.15989981     0.09200
H121        H  0.18514980  0.42502606  0.11901557     0.13700
H122        H  0.24058932  0.99994359  0.19719612    -0.00600
H123        H  0.13474497  0.99889565  0.19220158     0.14000
H124        H  0.18301187  0.07278304  0.12507641     0.13800
C125        C  0.18844862  0.01048158  0.30045227    -0.07000
C126        C  0.20627806  0.47450321  0.28015505    -0.18200
C127        C  0.20645969  0.46953071  0.24784571     0.10200
C128        C  0.18596364  0.00127745  0.23512596    -0.07000
C129        C  0.17371298  0.04293378  0.24936336    -0.18200
C130        C  0.17499107  0.04813831  0.28179377     0.10200
S131        S  0.22954363  0.42013690  0.23273449    -0.33200
S132        S  0.15969064  0.10398213  0.29759250    -0.33200
H133        H  0.17776368  0.10334250  0.32539555     0.28200
H134        H  0.20424165  0.40473522  0.21289132     0.28200
H135        H  0.22028369  0.44937805  0.29429711     0.18800
H136        H  0.16388498  0.07216006  0.23502261     0.18800
C137        C  0.08345035  0.99857128  0.44814537    -0.07000
C138        C  0.09225138  0.04244007  0.43273243    -0.18200
C139        C  0.11862635  0.04533538  0.41194427     0.10200
C140        C  0.13319084  0.49669197  0.40112272    -0.07000
C141        C  0.12526189  0.45369751  0.41818134    -0.18200
C142        C  0.09948802  0.45133454  0.43929989     0.10200
S143        S  0.12509566  0.10164063  0.39004983    -0.33200
S144        S  0.09304866  0.39366609  0.45920829    -0.33200
H145        H  0.06117955  0.38810079  0.44746911     0.28200
H146        H  0.10086265  0.12916982  0.40437345     0.28200
H147        H  0.07807946  0.07472792  0.43671570     0.18800
H148        H  0.13833828  0.42044376  0.41523819     0.18800
C149        C  0.08579260  0.00003014  0.07991279    -0.07000
C150        C  0.09131693  0.04088604  0.09876288    -0.18200
C151        C  0.11531702  0.04061625  0.12238418     0.10200
C152        C  0.13514238  0.99896213  0.12673964    -0.07000
C153        C  0.12330681  0.45247599  0.10842149    -0.18200
C154        C  0.09703048  0.45076643  0.08765850     0.10200
S155        S  0.11932815  0.09285416  0.14740908    -0.33200
S156        S  0.08682246  0.39226913  0.07084342    -0.33200
H157        H  0.11662874  0.36933260  0.07720434     0.28200
H158        H  0.09429843  0.12065268  0.13384862     0.28200
H159        H  0.07658937  0.07294476  0.09513189     0.18800
H160        H  0.13440914  0.41835396  0.11470787     0.18800
C161        C  0.88460385  0.49952478  0.11919848    -0.07000
C162        C  0.89902316  0.04666200  0.10342091    -0.18200
C163        C  0.92555068  0.04977967  0.08313123     0.10200
C164        C  0.94651123  0.00970052  0.08025182    -0.07000
C165        C  0.93592199  0.46576330  0.10067935    -0.18200
C166        C  0.90988337  0.46459551  0.12192746     0.10200
S167        S  0.92988909  0.10529510  0.06040970    -0.33200
S168        S  0.90889285  0.41660346  0.15134635    -0.33200
H169        H  0.93667892  0.39163115  0.14164542     0.28200
H170        H  0.96056602  0.11658821  0.07337649     0.28200
H171        H  0.88427432  0.07862385  0.10447688     0.18800
H172        H  0.95517694  0.43932216  0.10288207     0.18800
C173        C  0.94039710  0.00581410  0.45187913    -0.07000
C174        C  0.94148942  0.03639368  0.42546426    -0.18200
C175        C  0.91552763  0.03764024  0.40393117     0.10200
C176        C  0.88796971  0.00618456  0.40823163    -0.07000
C177        C  0.88754259  0.46983543  0.43378121    -0.18200
C178        C  0.91321831  0.46944203  0.45527098     0.10200
S179        S  0.91757849  0.08155705  0.37217529    -0.33200
S180        S  0.90978399  0.43096404  0.48982810    -0.32800
H181        H  0.88314924  0.40231253  0.47987547     0.28200
H182        H  0.94766454  0.10323602  0.38008790     0.28200
H183        H  0.96284398  0.05930862  0.42175758     0.18800
H184        H  0.86671677  0.44764311  0.43969150     0.18800
C185        C  0.83910401  0.99001895  0.22947197    -0.07000
C186        C  0.86414110  0.01724796  0.24407766    -0.18200
C187        C  0.86656171  0.02104095  0.27651889     0.10200
C188        C  0.84382807  0.99607880  0.29578764    -0.07000
C189        C  0.81615345  0.46723608  0.28158416    -0.18200
C190        C  0.81184708  0.46542897  0.24925595     0.10200
S191        S  0.89815812  0.06084590  0.29112597    -0.33200
S192        S  0.77636657  0.43184028  0.23613467    -0.33200
H193        H  0.77284271  0.40088112  0.26239717     0.28200
H194        H  0.87912866  0.08092027  0.31461287     0.28200
H195        H  0.88137038  0.03821096  0.23015351     0.18800
H196        H  0.79939634  0.44706776  0.29650101     0.18800
C197        C  0.24115730  0.08409184  0.15829423    -0.07000
C198        C  0.25433016  0.10150635  0.18628313    -0.18200
C199        C  0.27824964  0.13836833  0.18638028     0.10200
C200        C  0.28816303  0.16068393  0.15807615    -0.07000
C201        C  0.27536834  0.14286390  0.13005453    -0.18200
C202        C  0.25283396  0.10411948  0.12976445     0.10200
S203        S  0.29704324  0.15250996  0.22304187    -0.33200
S204        S  0.24191592  0.08021572  0.09218634    -0.33200
H205        H  0.24024029  0.03116730  0.10227396     0.28200
H206        H  0.32860868  0.15609450  0.21056355     0.28200
H207        H  0.24632960  0.08578772  0.20830978     0.18800
H208        H  0.28331304  0.15890853  0.10810081     0.18800
C209        C  0.28201242  0.33168435  0.15057467    -0.07000
C210        C  0.29413903  0.37990936  0.14787692    -0.18200
C211        C  0.27351619  0.42021786  0.14877106     0.10200
C212        C  0.23983260  0.41254358  0.15307206    -0.07000
C213        C  0.22762142  0.36440389  0.15559783    -0.18200
C214        C  0.24814713  0.32411952  0.15408553     0.10200
S215        S  0.29041268  0.48076983  0.14263834    -0.33200
S216        S  0.22934844  0.26437832  0.15526204    -0.33200
H217        H  0.25046609  0.24475831  0.13318671     0.28200
H218        H  0.32319020  0.46725708  0.13997342     0.28200
H219        H  0.32009723  0.38606748  0.14547146     0.18800
H220        H  0.20169321  0.35811113  0.15852944     0.18800
C221        C  0.29145624  0.35243971  0.36836905    -0.07000
C222        C  0.27168094  0.35730057  0.39452061    -0.18200
C223        C  0.25015880  0.39623987  0.39696785     0.10200
C224        C  0.24496186  0.42810846  0.37089294    -0.07000
C225        C  0.26644107  0.42450864  0.34555836    -0.18200
C226        C  0.29066752  0.38906861  0.34494782     0.10200
S227        S  0.23395639  0.40588533  0.43535309    -0.33200
S228        S  0.32159312  0.39624478  0.31551997    -0.33200
H229        H  0.34627631  0.37163928  0.33187512     0.28200
H230        H  0.23402214  0.45703683  0.43244378     0.28200
H231        H  0.27413494  0.33169323  0.41386328     0.18800
H232        H  0.26532313  0.44990288  0.32618290     0.18800
C233        C  0.24073340  0.09907462  0.37443624    -0.07000
C234        C  0.24885126  0.11857238  0.34497663    -0.18200
C235        C  0.26974569  0.15928274  0.34158658     0.10200
C236        C  0.28205742  0.18254884  0.36839160    -0.07000
C237        C  0.27268765  0.16416569  0.39788173    -0.18200
C238        C  0.25329039  0.12208868  0.40119760     0.10200
S239        S  0.28204772  0.17822734  0.30296668    -0.33200
S240        S  0.24822907  0.09741271  0.44005145    -0.33200
H241        H  0.24964217  0.04841880  0.43105451     0.28200
H242        H  0.26482933  0.14203671  0.28658573     0.28200
H243        H  0.23909340  0.10129156  0.32440455     0.18800
H244        H  0.28208954  0.18127337  0.41871637     0.18800
C245        C  0.34342373  0.26112703  0.29315878    -0.07000
C246        C  0.32184389  0.29055991  0.27623660    -0.18200
C247        C  0.32191745  0.29279341  0.24373900     0.10200
C248        C  0.34275681  0.26239614  0.22696018    -0.07000
C249        C  0.36452651  0.23257384  0.24362326    -0.18200
C250        C  0.36472292  0.23089905  0.27636071     0.10200
S251        S  0.29641794  0.33701212  0.22450349    -0.33200
S252        S  0.38984080  0.18526606  0.29470590    -0.33200
H253        H  0.36679406  0.17210554  0.31760469     0.28200
H254        H  0.28619492  0.36116696  0.25130790     0.28200
H255        H  0.30447346  0.31207823  0.28848060     0.18800
H256        H  0.38015511  0.20822610  0.23104739     0.18800
C257        C  0.44254602  0.25711207  0.44786661    -0.07000
C258        C  0.44025987  0.29460054  0.42535576    -0.18200
C259        C  0.41427101  0.29607334  0.40379894     0.10200
C260        C  0.38974358  0.25881054  0.40447600    -0.07000
C261        C  0.39254526  0.22188729  0.42761194    -0.18200
C262        C  0.41783045  0.22104530  0.44919755     0.10200
S263        S  0.41275072  0.34639067  0.37603722    -0.33200
S264        S  0.41546389  0.17420565  0.47923374    -0.33200
H265        H  0.42325057  0.20590144  0.50366391     0.28200
H266        H  0.43975064  0.37278986  0.38745689     0.28200
H267        H  0.45907025  0.32263556  0.42456573     0.18800
H268        H  0.37462558  0.19354503  0.43077988     0.18800
C269        C  0.44048872  0.24969319  0.07382651    -0.07000
C270        C  0.43686489  0.21323331  0.09691244    -0.18200
C271        C  0.41117629  0.21411223  0.11856608     0.10200
C272        C  0.38772048  0.25188700  0.11677408    -0.07000
C273        C  0.39283958  0.28936270  0.09429340    -0.18200
C274        C  0.41790441  0.28793661  0.07259809     0.10200
S275        S  0.40920389  0.16695049  0.14851641    -0.33200
S276        S  0.41826623  0.33514802  0.04278697    -0.33200
H277        H  0.42429473  0.30306280  0.01828212     0.28200
H278        H  0.43867873  0.14413489  0.14142245     0.28200
H279        H  0.45448412  0.18423299  0.09814295     0.18800
H280        H  0.37761898  0.32078521  0.09266049     0.18800
C281        C  0.74106724  0.32252486  0.15031749    -0.07000
C282        C  0.76335236  0.32931516  0.17502272    -0.18200
C283        C  0.78783189  0.36497807  0.17341258     0.10200
C284        C  0.78605742  0.40162994  0.15029457    -0.07000
C285        C  0.76538883  0.39449656  0.12481930    -0.18200
C286        C  0.74489243  0.35334775  0.12341747     0.10200
S287        S  0.82262461  0.35787510  0.19889671    -0.33200
S288        S  0.72905305  0.33965469  0.08526599    -0.33200
H289        H  0.73242287  0.28885155  0.08899429     0.28200
H290        H  0.84521029  0.38132271  0.17914932     0.28200
H291        H  0.76322337  0.30582964  0.19535515     0.18800
H292        H  0.76667757  0.41960217  0.10509841     0.18800
C293        C  0.78338903  0.07408815  0.15612727    -0.07000
C294        C  0.79470532  0.12219632  0.15972732    -0.18200
C295        C  0.77352329  0.16160888  0.15891661     0.10200
C296        C  0.73946483  0.15322715  0.15715806    -0.07000
C297        C  0.72805453  0.10468337  0.15485844    -0.18200
C298        C  0.74955078  0.06553331  0.15319778     0.10200
S299        S  0.79231912  0.22104598  0.15626189    -0.33200
S300        S  0.73249272  0.00660555  0.14430767    -0.33200
H301        H  0.75630932  0.99740075  0.12183946     0.28200
H302        H  0.77233825  0.23599088  0.13130787     0.28200
H303        H  0.82064159  0.12946302  0.16170630     0.18800
H304        H  0.70214044  0.09715663  0.15325377     0.18800
C305        C  0.63402019  0.23635845  0.12193329    -0.07000
C306        C  0.62396707  0.19366143  0.10656446    -0.18200
C307        C  0.59821450  0.19331506  0.08531635     0.10200
C308        C  0.58135790  0.23696641  0.07849880    -0.07000
C309        C  0.58908510  0.27852101  0.09596926    -0.18200
C310        C  0.61420981  0.27825376  0.11833148     0.10200
S311        S  0.58903567  0.13548413  0.06763552    -0.33200
S312        S  0.61984923  0.33140699  0.14239590    -0.33200
H313        H  0.59272833  0.35753866  0.13151253     0.28200
H314        H  0.55737000  0.13324651  0.08006718     0.28200
H315        H  0.63528327  0.15914076  0.11139947     0.18800
H316        H  0.57521026  0.31140078  0.09221906     0.18800
C317        C  0.78975063  0.09445803  0.36565662    -0.07000
C318        C  0.77858974  0.11159790  0.39426334    -0.18200
C319        C  0.75568039  0.14886882  0.39571883     0.10200
C320        C  0.74255879  0.16858926  0.36777633    -0.07000
C321        C  0.75404088  0.15202756  0.33917901    -0.18200
C322        C  0.77762429  0.11578497  0.33778442     0.10200
S323        S  0.74523002  0.17275733  0.43338584    -0.33200
S324        S  0.79236213  0.10076996  0.29977851    -0.33200
H325        H  0.82487867  0.09870871  0.30964374     0.28200
H326        H  0.76557872  0.14262080  0.45149535     0.28200
H327        H  0.78784494  0.09547862  0.41564231     0.18800
H328        H  0.74479767  0.16773655  0.31765368     0.18800
C329        C  0.73975074  0.33784280  0.36754006    -0.07000
C330        C  0.72762384  0.38561704  0.36857387    -0.18200
C331        C  0.74862811  0.42651509  0.36945063     0.10200
C332        C  0.78255669  0.41976585  0.36819447    -0.07000
C333        C  0.79462237  0.37212008  0.36674412    -0.18200
C334        C  0.77380515  0.33120321  0.36724837     0.10200
S335        S  0.73196983  0.48658523  0.37425570    -0.33200
S336        S  0.79142325  0.27122881  0.37016716    -0.33200
H337        H  0.82402438  0.28638001  0.37408031     0.28200
H338        H  0.69926676  0.47164776  0.37775895     0.28200
H339        H  0.70154344  0.39080881  0.36904931     0.18800
H340        H  0.82068801  0.36696172  0.36581745     0.18800
C341        C  0.63861697  0.24984263  0.40597443    -0.07000
C342        C  0.63631073  0.21597455  0.43103972    -0.18200
C343        C  0.61142271  0.21746542  0.45292591     0.10200
C344        C  0.58709990  0.25300514  0.45011044    -0.07000
C345        C  0.58941791  0.28804187  0.42605372    -0.18200
C346        C  0.61494371  0.28734293  0.40425418     0.10200
S347        S  0.61365379  0.17480194  0.48533021    -0.33200
S348        S  0.61715373  0.33555547  0.37501126    -0.33200
H349        H  0.59240647  0.36472995  0.38704718     0.28200
H350        H  0.60485153  0.20894344  0.50782738     0.28200
H351        H  0.65466449  0.18919309  0.43549639     0.18800
H352        H  0.57097237  0.31580856  0.42423245     0.18800
C353        C  0.68233795  0.24716359  0.29492787    -0.07000
C354        C  0.68665022  0.29014505  0.27722396    -0.18200
C355        C  0.68698384  0.28922995  0.24462361     0.10200
C356        C  0.68372267  0.24414565  0.22934685    -0.07000
C357        C  0.67968880  0.20114792  0.24701951    -0.18200
C358        C  0.67880586  0.20208705  0.27958925     0.10200
S359        S  0.69228330  0.34658950  0.22399877    -0.33200
S360        S  0.67518661  0.14414211  0.29990234    -0.33200
H361        H  0.65828203  0.16078575  0.32584045     0.28200
H362        H  0.67332148  0.33411643  0.19795713     0.28200
H363        H  0.68991733  0.32464588  0.28892438     0.18800
H364        H  0.67752825  0.16648715  0.23531268     0.18800
C365        C  0.66861108  0.24685278  0.88385950     0.85600
C366        C  0.68947070  0.29354827  0.88836883    -0.54700
C367        C  0.71627068  0.29730990  0.86960418     0.08500
C368        C  0.71986515  0.25373041  0.84786099     0.19400
C369        C  0.66066127  0.24591000  0.84873613    -0.55400
C370        C  0.68748436  0.24965561  0.83002512     0.08600
C371        C  0.69302376  0.20468600  0.88785183    -0.54900
C372        C  0.71997579  0.20887244  0.86967832     0.09200
H373        H  0.68359759  0.32108637  0.90529265     0.13700
H374        H  0.74126653  0.25660753  0.83219640    -0.00600
H375        H  0.63612112  0.24212682  0.83949012     0.14000
H376        H  0.68939877  0.17202502  0.90182768     0.13800
C377        C  0.66627935  0.24750388  0.64274310     0.85600
C378        C  0.68751903  0.20186664  0.63806998    -0.54700
C379        C  0.71514583  0.20078629  0.65585726     0.08500
C380        C  0.71946153  0.24590656  0.67631486     0.19400
C381        C  0.66019494  0.24874425  0.67781843    -0.55400
C382        C  0.68782185  0.24867859  0.69538998     0.08600
C383        C  0.69017648  0.29002409  0.63590857    -0.54900
C384        C  0.71847200  0.28952106  0.65288866     0.09200
H385        H  0.68217761  0.17348033  0.62142657     0.13700
H386        H  0.74127542  0.24323918  0.69137057    -0.00600
H387        H  0.63602334  0.25001367  0.68793642     0.14000
H388        H  0.68472796  0.31818314  0.61900798     0.13800
O389        O  0.54522665  0.20984941  0.54395408    -0.75300
O390        O  0.47867928  0.20900418  0.97897032    -0.75400
O391        O  0.54462660  0.20472603  0.97971580    -0.75400
O392        O  0.47946421  0.21134136  0.54255161    -0.75500
O393        O  0.48084818  0.29267666  0.54294337    -0.75400
O394        O  0.54779505  0.28596268  0.97994118    -0.75400
O395        O  0.48154570  0.29027977  0.97928592    -0.75400
O396        O  0.54671829  0.29082158  0.54519955    -0.75400
Ni397      Ni  0.51306862  0.20953629  0.51176036     1.25400
Ni398      Ni  0.51486328  0.29653183  0.51251269     1.25400
C399        C  0.55637133  0.24931547  0.55564749     0.86800
C400        C  0.46851778  0.25056802  0.96946234     0.86800
C401        C  0.55765907  0.24492756  0.97003196     0.86800
C402        C  0.46859561  0.25182254  0.55238973     0.87000
C403        C  0.35796504  0.25401986  0.88250574     0.85600
C404        C  0.33291202  0.21154149  0.88603691    -0.54700
C405        C  0.30618556  0.21493200  0.86722964     0.08500
C406        C  0.30710683  0.26044939  0.84581398     0.19400
C407        C  0.36625199  0.25345965  0.84751902    -0.55400
C408        C  0.33971863  0.25589517  0.82804982     0.08600
C409        C  0.33802591  0.30024055  0.88689026    -0.54900
C410        C  0.31190201  0.30434651  0.86754060     0.09200
H411        H  0.33623259  0.17902941  0.90016594     0.13700
H412        H  0.28492551  0.26355391  0.83119315    -0.00600
H413        H  0.39103600  0.25144538  0.83910339     0.14000
H414        H  0.34420625  0.32778995  0.90393382     0.13800
C415        C  0.35726609  0.24781594  0.63805595     0.85600
C416        C  0.33129438  0.28722031  0.63204616    -0.54700
C417        C  0.30492728  0.28398400  0.65095970     0.08500
C418        C  0.30641920  0.24147916  0.67461585     0.19400
C419        C  0.36526388  0.25328579  0.67310620    -0.55400
C420        C  0.33862967  0.25039057  0.69228612     0.08600
C421        C  0.33810872  0.19937426  0.63584048    -0.54900
C422        C  0.31180906  0.19550145  0.65514222     0.09200
H423        H  0.33338361  0.31795568  0.61618134     0.13700
H424        H  0.28477846  0.23860434  0.68991401    -0.00600
H425        H  0.38975911  0.25974408  0.68186955     0.14000
H426        H  0.34492505  0.17044054  0.62024832     0.13800
C427        C  0.85909341  0.00218308  0.88622690     0.85600
C428        C  0.83228335  0.46493598  0.88913109    -0.54700
C429        C  0.80566650  0.46417273  0.86996603     0.08500
C430        C  0.80900058  0.00818890  0.84853692     0.19400
C431        C  0.86785073  0.99851819  0.85137973    -0.55400
C432        C  0.84170795  0.00243276  0.83157602     0.08600
C433        C  0.83978811  0.04962739  0.88883708    -0.54900
C434        C  0.81389076  0.05328558  0.86889625     0.09200
H435        H  0.83564420  0.43731559  0.90719348     0.13700
H436        H  0.78756314  0.01063470  0.83285316    -0.00600
H437        H  0.89242268  0.99219838  0.84332838     0.14000
H438        H  0.84634306  0.07816408  0.90506471     0.13800
C439        C  0.85894296  0.50157582  0.64032756     0.85600
C440        C  0.83362624  0.04403242  0.63716573    -0.54700
C441        C  0.80618764  0.03949716  0.65473177     0.08500
C442        C  0.80476215  0.49317504  0.67191419     0.19400
C443        C  0.86352228  0.49999140  0.67602882    -0.55400
C444        C  0.83663323  0.99573227  0.69531936     0.08600
C445        C  0.83879644  0.45566049  0.63279887    -0.54900
C446        C  0.81117691  0.45034301  0.64991970     0.09200
H447        H  0.83622931  0.07501134  0.62159924     0.13700
H448        H  0.78145829  0.49099139  0.68424103    -0.00600
H449        H  0.88748716  0.50193858  0.68672232     0.14000
H450        H  0.84620961  0.42863929  0.61610681     0.13800
O451        O  0.04609449  0.45910249  0.54490796    -0.75300
O452        O  0.97706059  0.45878086  0.98152466    -0.75400
O453        O  0.04336469  0.45708075  0.98351093    -0.75400
O454        O  0.98019927  0.46361958  0.54676627    -0.75500
O455        O  0.98279032  0.04379765  0.54584739    -0.75400
O456        O  0.04951033  0.03831905  0.97995791    -0.75400
O457        O  0.98320219  0.04246036  0.98122478    -0.75400
O458        O  0.04865523  0.03999083  0.54523146    -0.75400
Ni459      Ni  0.01195564  0.45718490  0.51450126     1.25400
Ni460      Ni  0.01522424  0.04513177  0.51400073     1.25400
C461        C  0.05863615  0.99847125  0.55516152     0.86800
C462        C  0.97035820  0.00167589  0.97302448     0.86800
C463        C  0.05911094  0.99626524  0.97136711     0.86800
C464        C  0.96992521  0.00405603  0.55634844     0.87000
C465        C  0.16633157  0.50018587  0.88689508     0.85600
C466        C  0.18963205  0.04319564  0.88990308    -0.54700
C467        C  0.21675717  0.04851344  0.87181863     0.08500
C468        C  0.21783348  0.50738011  0.85137243     0.19400
C469        C  0.15860252  0.49900122  0.85179205    -0.55400
C470        C  0.18962902  0.00322186  0.83042487     0.08600
C471        C  0.19063474  0.45782635  0.89076002    -0.54900
C472        C  0.21829968  0.46202917  0.87325223     0.09200
H473        H  0.18237414  0.07057751  0.90639307     0.13700
H474        H  0.23935314  0.51183827  0.83608347    -0.00600
H475        H  0.13421824  0.49398438  0.84239991     0.14000
H476        H  0.18493870  0.42425913  0.90316392     0.13800
C477        C  0.16887785  0.98945761  0.64217824     0.85600
C478        C  0.18887723  0.44467542  0.64150490    -0.54700
C479        C  0.21541271  0.44463167  0.66064914     0.08500
C480        C  0.22082684  0.98877210  0.67775945     0.19400
C481        C  0.16143983  0.98841349  0.67739722    -0.55400
C482        C  0.18406475  0.48834298  0.69906333     0.08600
C483        C  0.19173168  0.03370860  0.63728896    -0.54900
C484        C  0.21902249  0.03340095  0.65557601     0.09200
H485        H  0.18432870  0.41404125  0.62653312     0.13700
H486        H  0.24259726  0.98855256  0.69315746    -0.00600
H487        H  0.13698335  0.98730195  0.68688963     0.14000
H488        H  0.18644375  0.06315040  0.62090066     0.13800
C489        C  0.18895963  0.00104402  0.79595294    -0.07000
C490        C  0.19472874  0.45730190  0.78505678    -0.18200
C491        C  0.19338233  0.45144231  0.75273880     0.10200
C492        C  0.18732829  0.99061504  0.73052087    -0.07000
C493        C  0.17223519  0.03030468  0.74456239    -0.18200
C494        C  0.17302843  0.03604636  0.77699359     0.10200
S495        S  0.20611652  0.39389621  0.73754317    -0.33200
S496        S  0.15418159  0.08945065  0.79252816    -0.33200
H497        H  0.17449377  0.09366684  0.81878395     0.28200
H498        H  0.18347357  0.39344456  0.71288651     0.28200
H499        H  0.20381101  0.42781408  0.79964353     0.18800
H500        H  0.16059261  0.05777986  0.73008119     0.18800
C501        C  0.08505716  0.99293563  0.94723200    -0.07000
C502        C  0.08918760  0.03136047  0.92548009    -0.18200
C503        C  0.11479218  0.03199133  0.90368447     0.10200
C504        C  0.13643983  0.49856271  0.90863247    -0.07000
C505        C  0.13605189  0.46732310  0.93516500    -0.18200
C506        C  0.11034575  0.46654189  0.95637788     0.10200
S507        S  0.11750431  0.08251989  0.87613039    -0.33200
S508        S  0.11468715  0.42837472  0.99069266    -0.33200
H509        H  0.10281321  0.46337842  0.01121519     0.28200
H510        H  0.08745879  0.10373955  0.88310976     0.28200
H511        H  0.07228411  0.06131463  0.92568446     0.18800
H512        H  0.15660986  0.44503964  0.94118098     0.18800
C513        C  0.08633240  0.99621805  0.57710806    -0.07000
C514        C  0.08762969  0.02748703  0.60261854    -0.18200
C515        C  0.11385607  0.02639808  0.62388091     0.10200
C516        C  0.13907699  0.99179401  0.62024595    -0.07000
C517        C  0.13660000  0.46147203  0.59520350    -0.18200
C518        C  0.11185205  0.46387111  0.57298312     0.10200
S519        S  0.11526839  0.07125676  0.65434288    -0.33200
S520        S  0.11535774  0.42498216  0.53968027    -0.33200
H521        H  0.10544182  0.46082306  0.51797265     0.28200
H522        H  0.08657691  0.09585664  0.64610839     0.28200
H523        H  0.06805947  0.05301703  0.60571012     0.18800
H524        H  0.15605080  0.43717588  0.58994367     0.18800
C525        C  0.89129032  0.50505170  0.62215485    -0.07000
C526        C  0.89530053  0.04462686  0.60061515    -0.18200
C527        C  0.92063615  0.04467737  0.57895926     0.10200
C528        C  0.94305286  0.00613890  0.57931321    -0.07000
C529        C  0.93862519  0.46651713  0.59900249    -0.18200
C530        C  0.91277678  0.46496936  0.62040129     0.10200
S531        S  0.92215053  0.09273740  0.54946567    -0.33200
S532        S  0.90808182  0.41162065  0.64542372    -0.33200
H533        H  0.93527424  0.38607131  0.63487190     0.28200
H534        H  0.89365596  0.11717326  0.55779423     0.28200
H535        H  0.87977277  0.07557477  0.59973408     0.18800
H536        H  0.95405587  0.43504261  0.59694295     0.18800
C537        C  0.94242768  0.00086025  0.95103244    -0.07000
C538        C  0.94063802  0.03615929  0.92716811    -0.18200
C539        C  0.91446021  0.03693201  0.90591551     0.10200
C540        C  0.88891634  0.00138703  0.90837846    -0.07000
C541        C  0.89978171  0.46167982  0.91307109    -0.18200
C542        C  0.92626417  0.45768129  0.93352632     0.10200
S543        S  0.91385074  0.08497712  0.87659947    -0.33200
S544        S  0.93974203  0.39664099  0.94219682    -0.32800
H545        H  0.97220465  0.40721571  0.93376603     0.28200
H546        H  0.94503056  0.10465273  0.88252461     0.28200
H547        H  0.95993338  0.06332119  0.92522866     0.18800
H548        H  0.88935427  0.42829810  0.90403475     0.18800
C549        C  0.83745867  0.99537513  0.73064303    -0.07000
C550        C  0.86310796  0.02113969  0.74539858    -0.18200
C551        C  0.86594864  0.02365047  0.77788232     0.10200
C552        C  0.84301914  0.99878088  0.79697267    -0.07000
C553        C  0.81490305  0.47371424  0.77990453    -0.18200
C554        C  0.81136467  0.47255001  0.74749681     0.10200
S555        S  0.89857458  0.06125690  0.79283955    -0.33200
S556        S  0.77633095  0.43910317  0.73317483    -0.33200
H557        H  0.75942851  0.43307154  0.76142869     0.28200
H558        H  0.88037861  0.08091896  0.81704161     0.28200
H559        H  0.88061720  0.04177476  0.73160694     0.18800
H560        H  0.79842695  0.45218378  0.79432261     0.18800
C561        C  0.24413034  0.07308796  0.65470132    -0.07000
C562        C  0.25532636  0.09200858  0.68299911    -0.18200
C563        C  0.27843523  0.13000094  0.68377401     0.10200
C564        C  0.28958030  0.15192554  0.65570627    -0.07000
C565        C  0.27893818  0.13220605  0.62735643    -0.18200
C566        C  0.25720022  0.09236896  0.62655361     0.10200
S567        S  0.29465082  0.14598701  0.72120439    -0.33200
S568        S  0.24872357  0.06633691  0.58900732    -0.33200
H569        H  0.24594331  0.01785861  0.60002178     0.28200
H570        H  0.32689696  0.14992130  0.71046237     0.28200
H571        H  0.24629424  0.07669482  0.70477600     0.18800
H572        H  0.28780288  0.14772387  0.60558344     0.18800
C573        C  0.28129367  0.32433061  0.65243505    -0.07000
C574        C  0.29367589  0.37220786  0.65501379    -0.18200
C575        C  0.27313281  0.41196569  0.65897410     0.10200
C576        C  0.23910540  0.40391476  0.66022440    -0.07000
C577        C  0.22685361  0.35575293  0.65817904    -0.18200
C578        C  0.24742115  0.31621949  0.65383845     0.10200
S579        S  0.29111377  0.47234692  0.66069847    -0.33200
S580        S  0.22888119  0.25684836  0.64887447    -0.33200
H581        H  0.25226567  0.24034260  0.62780289     0.28200
H582        H  0.32361312  0.45791920  0.66481642     0.28200
H583        H  0.31976952  0.37831082  0.65453165     0.18800
H584        H  0.20084027  0.34886945  0.65931624     0.18800
C585        C  0.28967226  0.34661933  0.86902190    -0.07000
C586        C  0.27200769  0.35333951  0.89639033    -0.18200
C587        C  0.25108002  0.39291370  0.89955306     0.10200
C588        C  0.24438355  0.42384772  0.87336768    -0.07000
C589        C  0.26318961  0.41770987  0.84639100    -0.18200
C590        C  0.28713532  0.38191671  0.84489282     0.10200
S591        S  0.23689747  0.40380355  0.93851643    -0.33200
S592        S  0.31604571  0.38774721  0.81360750    -0.33200
H593        H  0.34191648  0.36480946  0.82926701     0.28200
H594        H  0.23781004  0.45487089  0.93535290     0.28200
H595        H  0.27566113  0.32863198  0.91602126     0.18800
H596        H  0.26012166  0.44144396  0.82632278     0.18800
C597        C  0.23820904  0.09284348  0.87152612    -0.07000
C598        C  0.24721685  0.11300737  0.84254052    -0.18200
C599        C  0.26846106  0.15345286  0.84011535     0.10200
C600        C  0.28039410  0.17573610  0.86747872    -0.07000
C601        C  0.27021147  0.15662728  0.89650929    -0.18200
C602        C  0.25011673  0.11506455  0.89886544     0.10200
S603        S  0.28170763  0.17297565  0.80192164    -0.33200
S604        S  0.24301790  0.09025626  0.93738008    -0.33200
H605        H  0.24479318  0.04134677  0.92834452     0.28200
H606        H  0.26334152  0.13906329  0.78471512     0.28200
H607        H  0.23790770  0.09632478  0.82157556     0.18800
H608        H  0.27924749  0.17298490  0.91773259     0.18800
C609        C  0.34144700  0.25410041  0.79322037    -0.07000
C610        C  0.31885846  0.28159876  0.77627760    -0.18200
C611        C  0.31838076  0.28316402  0.74383370     0.10200
C612        C  0.34048176  0.25472348  0.72692940    -0.07000
C613        C  0.36317886  0.22656245  0.74365833    -0.18200
C614        C  0.36340676  0.22491275  0.77640808     0.10200
S615        S  0.28999152  0.32386324  0.72523032    -0.33200
S616        S  0.38933113  0.18022292  0.79465574    -0.33200
H617        H  0.36642036  0.16596500  0.81743545     0.28200
H618        H  0.27768929  0.34607196  0.75194823     0.28200
H619        H  0.30088557  0.30195800  0.78847219     0.18800
H620        H  0.37956608  0.20330988  0.73111127     0.18800
C621        C  0.44044843  0.25206582  0.94783383    -0.07000
C622        C  0.43962344  0.28678751  0.92355394    -0.18200
C623        C  0.41349103  0.28819741  0.90219313     0.10200
C624        C  0.38765712  0.25308051  0.90460699    -0.07000
C625        C  0.38849347  0.21980005  0.93001494    -0.18200
C626        C  0.41401928  0.21918977  0.95140954     0.10200
S627        S  0.41322180  0.33628300  0.87281309    -0.33200
S628        S  0.40989295  0.17759574  0.98423083    -0.33200
H629        H  0.42030974  0.21191937  0.00623550     0.28200
H630        H  0.44201035  0.36036081  0.88217737     0.28200
H631        H  0.45961188  0.31274127  0.92132242     0.18800
H632        H  0.36855036  0.19531165  0.93518173     0.18800
C633        C  0.44075313  0.25146011  0.57411240    -0.07000
C634        C  0.43937975  0.21715302  0.59868837    -0.18200
C635        C  0.41310432  0.21563805  0.61972981     0.10200
C636        C  0.38729796  0.24955594  0.61638808    -0.07000
C637        C  0.38914788  0.28326147  0.59111734    -0.18200
C638        C  0.41498559  0.28427629  0.57021049     0.10200
S639        S  0.41296943  0.16954711  0.65036206    -0.33200
S640        S  0.41226695  0.32669960  0.53771325    -0.33200
H641        H  0.42300426  0.29354458  0.51548310     0.28200
H642        H  0.43871219  0.14176158  0.63886731     0.28200
H643        H  0.45915741  0.19170786  0.60151705     0.18800
H644        H  0.37014076  0.30845316  0.58577347     0.18800
C645        C  0.74524560  0.32735606  0.64925610    -0.07000
C646        C  0.76779968  0.33360640  0.67376545    -0.18200
C647        C  0.79212643  0.36956655  0.67240216     0.10200
C648        C  0.79085429  0.40561561  0.64878430    -0.07000
C649        C  0.77065631  0.39779675  0.62304731    -0.18200
C650        C  0.74965485  0.35718190  0.62201699     0.10200
S651        S  0.82554188  0.36435976  0.69971493    -0.33200
S652        S  0.73367493  0.34277077  0.58400762    -0.33200
H653        H  0.73444855  0.29190922  0.58879036     0.28200
H654        H  0.84855301  0.39022231  0.68176417     0.28200
H655        H  0.76753284  0.30998475  0.69405136     0.18800
H656        H  0.77237268  0.42227043  0.60303663     0.18800
C657        C  0.78170095  0.07944343  0.65567322    -0.07000
C658        C  0.79350156  0.12781452  0.65531505    -0.18200
C659        C  0.77259698  0.16741759  0.65362329     0.10200
C660        C  0.73857041  0.15967615  0.65527614    -0.07000
C661        C  0.72654408  0.11141160  0.65658256    -0.18200
C662        C  0.74754479  0.07144687  0.65582107     0.10200
S663        S  0.79119331  0.22598002  0.64576285    -0.33200
S664        S  0.72900289  0.01197585  0.65234822    -0.33200
H665        H  0.75094357  0.99782264  0.62931847     0.28200
H666        H  0.76838182  0.23815941  0.62251739     0.28200
H667        H  0.81950002  0.13510106  0.65514394     0.18800
H668        H  0.70048735  0.10472521  0.65737567     0.18800
C669        C  0.63453558  0.24891376  0.62365095    -0.07000
C670        C  0.62008452  0.20463500  0.61417439    -0.18200
C671        C  0.59359172  0.20328532  0.59367112     0.10200
C672        C  0.58116862  0.24741924  0.58109445    -0.07000
C673        C  0.59309279  0.29155089  0.59317636    -0.18200
C674        C  0.61813146  0.29276068  0.61537444     0.10200
S675        S  0.57673702  0.14375265  0.58553599    -0.33200
S676        S  0.62600757  0.35150339  0.63264791    -0.33200
H677        H  0.63458819  0.33339582  0.66221499     0.28200
H678        H  0.54465850  0.15742255  0.59243504     0.28200
H679        H  0.62886503  0.17022821  0.62327350     0.18800
H680        H  0.58242584  0.32576768  0.58573536     0.18800
C681        C  0.79173645  0.09589256  0.86830486    -0.07000
C682        C  0.78168298  0.11498642  0.89680749    -0.18200
C683        C  0.75937872  0.15314472  0.89792023     0.10200
C684        C  0.74563992  0.17139294  0.86990387    -0.07000
C685        C  0.75632950  0.15352350  0.84144286    -0.18200
C686        C  0.77962535  0.11694568  0.84029493     0.10200
S687        S  0.75001240  0.17975262  0.93507125    -0.33200
S688        S  0.79429112  0.10166289  0.80235108    -0.33200
H689        H  0.82682901  0.10118666  0.81226341     0.28200
H690        H  0.77187709  0.15212723  0.95318462     0.28200
H691        H  0.79105411  0.09953750  0.91833408     0.18800
H692        H  0.74656173  0.16834394  0.81985216     0.18800
C693        C  0.73949187  0.33977090  0.87017395    -0.07000
C694        C  0.72705991  0.38737049  0.87007570    -0.18200
C695        C  0.74783001  0.42866753  0.87043092     0.10200
C696        C  0.78191456  0.42244238  0.87001739    -0.07000
C697        C  0.79426306  0.37493644  0.87035142    -0.18200
C698        C  0.77365318  0.33374576  0.87107839     0.10200
S699        S  0.73053346  0.48864748  0.87341581    -0.33200
S700        S  0.79167716  0.27425728  0.87545739    -0.33200
H701        H  0.82416931  0.29000781  0.87924220     0.28200
H702        H  0.69783780  0.47335458  0.87631448     0.28200
H703        H  0.70093081  0.39212545  0.86977034     0.18800
H704        H  0.82038924  0.37015151  0.87027056     0.18800
C705        C  0.63847370  0.24522199  0.90534648    -0.07000
C706        C  0.63578069  0.21005202  0.92970380    -0.18200
C707        C  0.60997516  0.20934401  0.95071149     0.10200
C708        C  0.58515239  0.24403292  0.94782185    -0.07000
C709        C  0.58740440  0.27962792  0.92405331    -0.18200
C710        C  0.61362440  0.28086554  0.90296241     0.10200
S711        S  0.61179191  0.16533419  0.98235263    -0.33200
S712        S  0.61523263  0.32926985  0.87381360    -0.33200
H713        H  0.58641460  0.35276767  0.88225268     0.28200
H714        H  0.60318991  0.19885290  0.00529390     0.28200
H715        H  0.65436115  0.18376134  0.93435632     0.18800
H716        H  0.56850380  0.30667740  0.92212318     0.18800
C717        C  0.68620263  0.24875928  0.79557974    -0.07000
C718        C  0.69783186  0.28986115  0.77905252    -0.18200
C719        C  0.69751327  0.29145929  0.74646468     0.10200
C720        C  0.68688107  0.25015436  0.72982723    -0.07000
C721        C  0.67495146  0.20914585  0.74631371    -0.18200
C722        C  0.67456584  0.20791095  0.77895475     0.10200
S723        S  0.70920304  0.34814273  0.72766091    -0.33200
S724        S  0.65994363  0.15268103  0.79784428    -0.33200
H725        H  0.68140933  0.15468374  0.82335196     0.28200
H726        H  0.68755278  0.34385397  0.70238582     0.28200
H727        H  0.70642424  0.32150173  0.79168680     0.18800
H728        H  0.66647205  0.17749517  0.73363878     0.18800
C729        C  0.66983983  0.74856409  0.38456351     0.85600
C730        C  0.69065468  0.79533264  0.38896599    -0.54700
C731        C  0.71743365  0.79892620  0.37018485     0.08500
C732        C  0.72116133  0.75508617  0.34862174     0.19400
C733        C  0.66198612  0.74732949  0.34943619    -0.55400
C734        C  0.68882257  0.75087142  0.33076198     0.08600
C735        C  0.69432916  0.70652535  0.38885172    -0.54900
C736        C  0.72121180  0.71035209  0.37056789     0.09200
H737        H  0.68475945  0.82306916  0.40575052     0.13700
H738        H  0.74262868  0.75777620  0.33301458    -0.00600
H739        H  0.63746571  0.74342776  0.34015653     0.14000
H740        H  0.69080737  0.67405441  0.40300094     0.13800
C741        C  0.66544531  0.74659116  0.14353475     0.85600
C742        C  0.68670217  0.70089549  0.13912174    -0.54700
C743        C  0.71422061  0.69963182  0.15695517     0.08500
C744        C  0.71868522  0.74505515  0.17708998     0.19400
C745        C  0.65941474  0.74873418  0.17863433    -0.55400
C746        C  0.68713026  0.74843104  0.19616093     0.08600
C747        C  0.68939969  0.78908333  0.13654290    -0.54900
C748        C  0.71784412  0.78855720  0.15347739     0.09200
H749        H  0.68169444  0.67259198  0.12236782     0.13700
H750        H  0.74036543  0.74227898  0.19227509    -0.00600
H751        H  0.63528619  0.75064406  0.18877313     0.14000
H752        H  0.68357527  0.81743091  0.11985488     0.13800
O753        O  0.54413780  0.70748146  0.04513120    -0.75300
O754        O  0.47909644  0.70750411  0.47901325    -0.75400
O755        O  0.54513883  0.70615558  0.47930506    -0.75400
O756        O  0.47820691  0.70697873  0.04293231    -0.75500
O757        O  0.47905078  0.78832112  0.04220744    -0.75400
O758        O  0.54710042  0.78742957  0.47864205    -0.75400
O759        O  0.48070288  0.78882903  0.47809932    -0.75400
O760        O  0.54513022  0.78844313  0.04514114    -0.75400
Ni761      Ni  0.51256720  0.70476670  0.01259578     1.25400
Ni762      Ni  0.51309912  0.79175587  0.01202929     1.25400
C763        C  0.55507872  0.74742293  0.05626552     0.86800
C764        C  0.46831481  0.74836503  0.46880939     0.86800
C765        C  0.55767383  0.74643921  0.46927675     0.86800
C766        C  0.46683895  0.74771112  0.05198087     0.87000
C767        C  0.35709917  0.75251842  0.38226282     0.85600
C768        C  0.33090485  0.71172022  0.38627189    -0.54700
C769        C  0.30407760  0.71667936  0.36769254     0.08500
C770        C  0.30591463  0.76215406  0.34619835     0.19400
C771        C  0.36474264  0.75142534  0.34713026    -0.55400
C772        C  0.33804332  0.75577635  0.32800825     0.08600
C773        C  0.33846690  0.79995234  0.38691656    -0.54900
C774        C  0.31221226  0.80568218  0.36788989     0.09200
H775        H  0.33331060  0.67937737  0.40072561     0.13700
H776        H  0.28372552  0.76669386  0.33172123    -0.00600
H777        H  0.38929869  0.74796532  0.33833483     0.14000
H778        H  0.34559742  0.82708840  0.40390963     0.13800
C779        C  0.35601067  0.75384720  0.13798164     0.85600
C780        C  0.33144889  0.79543448  0.13220347    -0.54700
C781        C  0.30494255  0.79396802  0.15115656     0.08500
C782        C  0.30519066  0.75103744  0.17463672     0.19400
C783        C  0.36433680  0.75847938  0.17299569    -0.55400
C784        C  0.33774607  0.75719572  0.19221339     0.08600
C785        C  0.33527172  0.70702860  0.13565184    -0.54900
C786        C  0.30890242  0.70497351  0.15485692     0.09200
H787        H  0.33472331  0.82583185  0.11620752     0.13700
H788        H  0.28372319  0.74960446  0.19019040    -0.00600
H789        H  0.38902501  0.76289429  0.18175169     0.14000
H790        H  0.34108632  0.67774847  0.11993148     0.13800
C791        C  0.85818523  0.50052292  0.38436765     0.85600
C792        C  0.83363176  0.96376078  0.39032916    -0.54700
C793        C  0.80756135  0.96471400  0.37059900     0.08500
C794        C  0.80739628  0.50491948  0.34741769     0.19400
C795        C  0.86647406  0.49678347  0.34936063    -0.55400
C796        C  0.83987546  0.49986727  0.32995358     0.08600
C797        C  0.83849948  0.54752174  0.38695892    -0.54900
C798        C  0.81211631  0.55037110  0.36753416     0.09200
H799        H  0.83655528  0.93340226  0.40643297     0.13700
H800        H  0.78564147  0.50641587  0.33210358    -0.00600
H801        H  0.89095194  0.49102105  0.34087187     0.14000
H802        H  0.84525843  0.57647696  0.40281173     0.13800
C803        C  0.86037493  0.99923194  0.14079031     0.85600
C804        C  0.82990870  0.53947583  0.13651635    -0.54700
C805        C  0.80249273  0.53501175  0.15411558     0.08500
C806        C  0.80731284  0.98746390  0.17384599     0.19400
C807        C  0.86610334  0.99570527  0.17634490    -0.55400
C808        C  0.83295129  0.49023263  0.19396665     0.08600
C809        C  0.84051264  0.95311719  0.13284999    -0.54900
C810        C  0.81336080  0.94623732  0.15054614     0.09200
H811        H  0.83424507  0.57245391  0.12302028     0.13700
H812        H  0.78422536  0.98406527  0.18655215    -0.00600
H813        H  0.89040957  0.99784897  0.18626061     0.14000
H814        H  0.84784156  0.92719169  0.11542559     0.13800
O815        O  0.04685814  0.96154521  0.04664654    -0.75300
O816        O  0.97830468  0.96331910  0.48397349    -0.75400
O817        O  0.04438825  0.95961912  0.48269466    -0.75400
O818        O  0.98150201  0.96552943  0.04680254    -0.75500
O819        O  0.97745087  0.53950277  0.04393093    -0.75400
O820        O  0.04685258  0.53751132  0.47934624    -0.75400
O821        O  0.98087473  0.54195379  0.48139130    -0.75400
O822        O  0.04361105  0.53728522  0.04583913    -0.75400
Ni823      Ni  0.01398757  0.95867173  0.01533042     1.25400
Ni824      Ni  0.01121675  0.54166927  0.01330142     1.25400
C825        C  0.05330735  0.49596048  0.05660466     0.86800
C826        C  0.96779593  0.50144528  0.47302531     0.86800
C827        C  0.05578507  0.49568894  0.46975711     0.86800
C828        C  0.96482791  0.49929057  0.05395434     0.87000
C829        C  0.17003965  0.00650810  0.38807090     0.85600
C830        C  0.18524379  0.54684695  0.38936897    -0.54700
C831        C  0.21264170  0.55299010  0.37175230     0.08500
C832        C  0.22204566  0.01273273  0.35320511     0.19400
C833        C  0.16272935  0.00940537  0.35302078    -0.55400
C834        C  0.18651255  0.50934439  0.32915849     0.08600
C835        C  0.19344284  0.96284423  0.39150192    -0.54900
C836        C  0.22114420  0.96626315  0.37398472     0.09200
H837        H  0.17780012  0.57343575  0.40629147     0.13700
H838        H  0.24378526  0.01652103  0.33814019    -0.00600
H839        H  0.13824392  0.00777811  0.34339016     0.14000
H840        H  0.18884470  0.93139761  0.40620372     0.13800
C841        C  0.16617570  0.49698020  0.14104296     0.85600
C842        C  0.18911500  0.95597846  0.14234985    -0.54700
C843        C  0.21611391  0.95578349  0.16067065     0.08500
C844        C  0.21928438  0.49827088  0.17493861     0.19400
C845        C  0.16003873  0.49749594  0.17634099    -0.55400
C846        C  0.18658626  0.99926149  0.20065716     0.08600
C847        C  0.18874921  0.54135685  0.13456695    -0.54900
C848        C  0.21634171  0.54249867  0.15252435     0.09200
H849        H  0.18637220  0.92860879  0.12463882     0.13700
H850        H  0.24170495  0.49899430  0.18944265    -0.00600
H851        H  0.13578753  0.49745663  0.18633611     0.14000
H852        H  0.18309773  0.56988665  0.11769100     0.13800
C853        C  0.18677303  0.50895234  0.29455373    -0.07000
C854        C  0.20020050  0.96861246  0.28622587    -0.18200
C855        C  0.19903559  0.96353091  0.25381335     0.10200
C856        C  0.18717649  0.50031750  0.22884502    -0.07000
C857        C  0.16756553  0.53502452  0.24323325    -0.18200
C858        C  0.16732750  0.53991433  0.27574108     0.10200
S859        S  0.21287590  0.90781955  0.23669608    -0.33200
S860        S  0.14266899  0.58738235  0.29156171    -0.33200
H861        H  0.16347917  0.59751488  0.31681305     0.28200
H862        H  0.22211007  0.88420729  0.26461700     0.28200
H863        H  0.20974066  0.93941834  0.30070780     0.18800
H864        H  0.15291512  0.55933971  0.22900114     0.18800
C865        C  0.08061404  0.49316941  0.44454062    -0.07000
C866        C  0.08630973  0.53467602  0.42557390    -0.18200
C867        C  0.11144970  0.53641866  0.40339037     0.10200
C868        C  0.13867941  0.00403112  0.40781987    -0.07000
C869        C  0.12798768  0.95939261  0.42136254    -0.18200
C870        C  0.10092285  0.95608520  0.44093845     0.10200
S871        S  0.11521804  0.58991295  0.37832843    -0.33200
S872        S  0.09047460  0.89599033  0.45565048    -0.33200
H873        H  0.05888549  0.89715434  0.44281481     0.28200
H874        H  0.08716663  0.61381898  0.38843494     0.28200
H875        H  0.07099768  0.56615674  0.42823021     0.18800
H876        H  0.13956292  0.92555706  0.41603906     0.18800
C877        C  0.07971163  0.49398812  0.08061297    -0.07000
C878        C  0.08824276  0.53670118  0.09666550    -0.18200
C879        C  0.11455620  0.53801403  0.11779565     0.10200
C880        C  0.13437446  0.49630448  0.12181779    -0.07000
C881        C  0.12635358  0.95659531  0.11037193    -0.18200
C882        C  0.10364358  0.95728135  0.08631008     0.10200
S883        S  0.12132338  0.59250009  0.14033628    -0.33200
S884        S  0.10091367  0.90282815  0.06338224    -0.33200
H885        H  0.10340056  0.92925731  0.03518614     0.28200
H886        H  0.09573458  0.62006493  0.12759392     0.28200
H887        H  0.07407768  0.56924968  0.09275068     0.18800
H888        H  0.13720615  0.92187689  0.11560090     0.18800
C889        C  0.89215676  0.00434795  0.12165652    -0.07000
C890        C  0.88640791  0.53328236  0.09395842    -0.18200
C891        C  0.91235208  0.53438909  0.07297083     0.10200
C892        C  0.93753042  0.50040193  0.07634715    -0.07000
C893        C  0.94153508  0.96905289  0.10010333    -0.18200
C894        C  0.91534273  0.96631133  0.12109069     0.10200
S895        S  0.91101870  0.57644335  0.04003709    -0.33200
S896        S  0.91198093  0.91330355  0.14656224    -0.33200
H897        H  0.94304647  0.89446519  0.14083299     0.28200
H898        H  0.88627869  0.60642776  0.05127579     0.28200
H899        H  0.86675041  0.55735437  0.08861124     0.18800
H900        H  0.95809865  0.93875805  0.09887537     0.18800
C901        C  0.94004862  0.50124484  0.45085273    -0.07000
C902        C  0.93997584  0.53378667  0.42534872    -0.18200
C903        C  0.91415241  0.53422090  0.40363052     0.10200
C904        C  0.88766187  0.50049232  0.40696224    -0.07000
C905        C  0.88638038  0.97870431  0.43636355    -0.18200
C906        C  0.91211083  0.97780052  0.45780185     0.10200
S907        S  0.91505216  0.57972059  0.37272161    -0.33200
S908        S  0.90733902  0.94382641  0.49405139    -0.32800
H909        H  0.87804427  0.91954476  0.48645329     0.28200
H910        H  0.94331425  0.60489092  0.38236979     0.28200
H911        H  0.96036681  0.55886371  0.42243976     0.18800
H912        H  0.86445676  0.95958004  0.44305918     0.18800
C913        C  0.83417616  0.49090826  0.22920272    -0.07000
C914        C  0.85910106  0.51890335  0.24337593    -0.18200
C915        C  0.86222775  0.52231673  0.27580468     0.10200
C916        C  0.84059090  0.49576166  0.29536913    -0.07000
C917        C  0.81944881  0.96790914  0.28162430    -0.18200
C918        C  0.81608490  0.96531465  0.24920306     0.10200
S919        S  0.89316474  0.56361352  0.29010513    -0.33200
S920        S  0.78101584  0.93144047  0.23547213    -0.33200
H921        H  0.77583508  0.90228496  0.26230679     0.28200
H922        H  0.87519963  0.58027396  0.31542329     0.28200
H923        H  0.87565927  0.54054960  0.22910744     0.18800
H924        H  0.80206626  0.94853194  0.29629105     0.18800
C925        C  0.24030106  0.58376819  0.15211442    -0.07000
C926        C  0.25100092  0.60202986  0.18079464    -0.18200
C927        C  0.27378064  0.64033989  0.18238937     0.10200
C928        C  0.28533963  0.66303744  0.15475060    -0.07000
C929        C  0.27450161  0.64492549  0.12600097    -0.18200
C930        C  0.25287450  0.60505315  0.12434174     0.10200
S931        S  0.28905928  0.65560596  0.22028985    -0.33200
S932        S  0.24406116  0.58167897  0.08614947    -0.33200
H933        H  0.24193930  0.53242669  0.09569306     0.28200
H934        H  0.32165079  0.65756880  0.21040861     0.28200
H935        H  0.24194629  0.58576272  0.20229042     0.18800
H936        H  0.28337733  0.66151461  0.10454064     0.18800
C937        C  0.28147759  0.83488148  0.15203298    -0.07000
C938        C  0.29389066  0.88306509  0.15185095    -0.18200
C939        C  0.27343672  0.92325590  0.15493904     0.10200
C940        C  0.23974797  0.91525716  0.15913737    -0.07000
C941        C  0.22737417  0.86712629  0.15935475    -0.18200
C942        C  0.24761769  0.82719320  0.15522609     0.10200
S943        S  0.29057115  0.98413788  0.15172672    -0.33200
S944        S  0.22842006  0.76790412  0.15249865    -0.33200
H945        H  0.24995696  0.75095749  0.12984221     0.28200
H946        H  0.32304946  0.97071895  0.14675015     0.28200
H947        H  0.31988234  0.88921551  0.14984181     0.18800
H948        H  0.20143520  0.86063182  0.16205920     0.18800
C949        C  0.29107541  0.84914202  0.36970004    -0.07000
C950        C  0.27380905  0.85661508  0.39721521    -0.18200
C951        C  0.25364690  0.89705161  0.40048135     0.10200
C952        C  0.24700549  0.92778803  0.37421852    -0.07000
C953        C  0.26568397  0.92119515  0.34721997    -0.18200
C954        C  0.28914837  0.88472296  0.34568367     0.10200
S955        S  0.24092160  0.90977313  0.43965462    -0.33200
S956        S  0.31848782  0.89034434  0.31474869    -0.33200
H957        H  0.34358425  0.86504602  0.33005688     0.28200
H958        H  0.24189364  0.96073708  0.43554034     0.28200
H959        H  0.27726843  0.83189448  0.41687151     0.18800
H960        H  0.26297623  0.94519492  0.32722878     0.18800
C961        C  0.23385544  0.59755377  0.37186363    -0.07000
C962        C  0.24304680  0.61778455  0.34294977    -0.18200
C963        C  0.26497754  0.65733272  0.34062561     0.10200
C964        C  0.27737165  0.67888800  0.36802814    -0.07000
C965        C  0.26669867  0.66021949  0.39703685    -0.18200
C966        C  0.24586068  0.61938985  0.39929381     0.10200
S967        S  0.27885941  0.67595002  0.30246449    -0.33200
S968        S  0.23792606  0.59494051  0.43775701    -0.33200
H969        H  0.23916527  0.54585953  0.42892278     0.28200
H970        H  0.25638059  0.64821142  0.28512010     0.28200
H971        H  0.23361012  0.60149309  0.32190166     0.18800
H972        H  0.27598306  0.67618497  0.41828720     0.18800
C973        C  0.33944470  0.75512248  0.29311163    -0.07000
C974        C  0.31825139  0.78562599  0.27652046    -0.18200
C975        C  0.31890616  0.78978388  0.24408352     0.10200
C976        C  0.33980515  0.75994146  0.22688313    -0.07000
C977        C  0.36073578  0.72835816  0.24320154    -0.18200
C978        C  0.36033760  0.72482871  0.27589654     0.10200
S979        S  0.29423064  0.83592623  0.22564950    -0.33200
S980        S  0.38382393  0.67657342  0.29348265    -0.33200
H981        H  0.36037397  0.66424803  0.31618353     0.28200
H982        H  0.28135674  0.85628296  0.25271956     0.28200
H983        H  0.30079210  0.80662004  0.28896576     0.18800
H984        H  0.37611868  0.70407579  0.23030133     0.18800
C985        C  0.44046826  0.74856737  0.44677739    -0.07000
C986        C  0.43958645  0.78317072  0.42242853    -0.18200
C987        C  0.41340070  0.78472072  0.40115029     0.10200
C988        C  0.38730048  0.75007620  0.40378794    -0.07000
C989        C  0.38858474  0.71593765  0.42875503    -0.18200
C990        C  0.41423991  0.71525507  0.45013158     0.10200
S991        S  0.41344468  0.83250340  0.37154600    -0.33200
S992        S  0.41045885  0.67328811  0.48278422    -0.33200
H993        H  0.42049063  0.70764166  0.50497728     0.28200
H994        H  0.44319988  0.85488483  0.37979663     0.28200
H995        H  0.45953197  0.80919646  0.42019309     0.18800
H996        H  0.36896126  0.69072265  0.43356990     0.18800
C997        C  0.43856616  0.74849248  0.07323094    -0.07000
C998        C  0.43677649  0.71599604  0.09872289    -0.18200
C999        C  0.41070203  0.71721060  0.11996246     0.10200
C1000       C  0.38579209  0.75256234  0.11609907    -0.07000
C1001       C  0.38774024  0.78388960  0.08968384    -0.18200
C1002       C  0.41321371  0.78187389  0.06843221     0.10200
S1003       S  0.40952243  0.67247536  0.15139890    -0.33200
S1004       S  0.41053296  0.82091923  0.03427541    -0.33200
H1005       H  0.42072867  0.78499425  0.01356743     0.28200
H1006       H  0.43541776  0.64382078  0.14114998     0.28200
H1007       H  0.45608803  0.68991857  0.10213422     0.18800
H1008       H  0.36881963  0.80900267  0.08370205     0.18800
C1009       C  0.74498549  0.82604768  0.14978107    -0.07000
C1010       C  0.76809984  0.83114676  0.17399157    -0.18200
C1011       C  0.79348658  0.86542987  0.17212741     0.10200
C1012       C  0.79274548  0.90172613  0.14871893    -0.07000
C1013       C  0.77174516  0.89540954  0.12338430    -0.18200
C1014       C  0.74957270  0.85608823  0.12262357     0.10200
S1015       S  0.82775393  0.85760334  0.19815922    -0.33200
S1016       S  0.73209015  0.84358158  0.08495930    -0.33200
H1017       H  0.73311970  0.79254632  0.08889238     0.28200
H1018       H  0.85076944  0.88140738  0.17904498     0.28200
H1019       H  0.76759988  0.80770885  0.19434669     0.18800
H1020       H  0.77358653  0.92009729  0.10349998     0.18800
C1021       C  0.77886522  0.57582345  0.15619162    -0.07000
C1022       C  0.79149221  0.62360922  0.15777785    -0.18200
C1023       C  0.77134147  0.66414370  0.15643575     0.10200
C1024       C  0.73713530  0.65770084  0.15666701    -0.07000
C1025       C  0.72432321  0.60977758  0.15635679    -0.18200
C1026       C  0.74467644  0.56912048  0.15505535     0.10200
S1027       S  0.79129008  0.72222169  0.15044933    -0.33200
S1028       S  0.72550048  0.51051176  0.14936103    -0.33200
H1029       H  0.74825679  0.49638695  0.12702200     0.28200
H1030       H  0.76972084  0.73653446  0.12658461     0.28200
H1031       H  0.81760274  0.62974000  0.15859896     0.18800
H1032       H  0.69817559  0.60391927  0.15616223     0.18800
C1033       C  0.63367378  0.74739642  0.12423859    -0.07000
C1034       C  0.62030656  0.70321923  0.11341637    -0.18200
C1035       C  0.59392588  0.70178933  0.09287655     0.10200
C1036       C  0.58000179  0.74591132  0.08180137    -0.07000
C1037       C  0.59056421  0.78971739  0.09550465    -0.18200
C1038       C  0.61602654  0.79065409  0.11764060     0.10200
S1039       S  0.57950578  0.64171652  0.08254823    -0.33200
S1040       S  0.62394118  0.84650486  0.13847843    -0.33200
H1041       H  0.60097612  0.87559974  0.12277364     0.28200
H1042       H  0.54728197  0.65098785  0.09160498     0.28200
H1043       H  0.62963867  0.66866125  0.12159511     0.18800
H1044       H  0.57858661  0.82335724  0.08910697     0.18800
C1045       C  0.78976017  0.59289782  0.36729296    -0.07000
C1046       C  0.78125679  0.61299243  0.39601519    -0.18200
C1047       C  0.76002996  0.65244368  0.39772659     0.10200
C1048       C  0.74607466  0.67165475  0.37010109    -0.07000
C1049       C  0.75487005  0.65241770  0.34141237    -0.18200
C1050       C  0.77664651  0.61382623  0.33961970     0.10200
S1051       S  0.75233627  0.67943865  0.43512421    -0.33200
S1052       S  0.78779367  0.59558636  0.30113772    -0.33200
H1053       H  0.82103486  0.59547309  0.30847379     0.28200
H1054       H  0.77049931  0.64638025  0.45331047     0.28200
H1055       H  0.79115088  0.59747251  0.41729762     0.18800
H1056       H  0.74461767  0.66753395  0.32011657     0.18800
C1057       C  0.74063048  0.84132590  0.37054498    -0.07000
C1058       C  0.72843484  0.88908131  0.36908611    -0.18200
C1059       C  0.74945742  0.93017292  0.36898357     0.10200
C1060       C  0.78349036  0.92341399  0.36963895    -0.07000
C1061       C  0.79550051  0.87568502  0.37098812    -0.18200
C1062       C  0.77466465  0.83488452  0.37228623     0.10200
S1063       S  0.73256687  0.99064193  0.36996938    -0.33200
S1064       S  0.79213660  0.77539120  0.37864787    -0.33200
H1065       H  0.82477000  0.79072046  0.38197922     0.28200
H1066       H  0.69958466  0.97621537  0.36894947     0.28200
H1067       H  0.70233940  0.89407597  0.36815707     0.18800
H1068       H  0.82156615  0.87036309  0.37147004     0.18800
C1069       C  0.63944477  0.74694419  0.40569931    -0.07000
C1070       C  0.63579999  0.71065518  0.42925632    -0.18200
C1071       C  0.60970268  0.70984903  0.44990964     0.10200
C1072       C  0.58544461  0.74555959  0.44737399    -0.07000
C1073       C  0.58846449  0.78192701  0.42416258    -0.18200
C1074       C  0.61496367  0.78316424  0.40340691     0.10200
S1075       S  0.61042782  0.66399717  0.48056542    -0.33200
S1076       S  0.61728663  0.83210870  0.37466409    -0.33200
H1077       H  0.58802903  0.85506046  0.38233683     0.28200
H1078       H  0.60274188  0.69668389  0.50430276     0.28200
H1079       H  0.65367457  0.68316260  0.43345302     0.18800
H1080       H  0.56993039  0.80955557  0.42237573     0.18800
C1081       C  0.68744776  0.74935500  0.29634828    -0.07000
C1082       C  0.69757487  0.79101790  0.27947990    -0.18200
C1083       C  0.69660005  0.79227667  0.24688035     0.10200
C1084       C  0.68660847  0.75027838  0.23059398    -0.07000
C1085       C  0.67649630  0.70856244  0.24742338    -0.18200
C1086       C  0.67685440  0.70753309  0.28006796     0.10200
S1087       S  0.70709657  0.84909378  0.22754676    -0.33200
S1088       S  0.66419810  0.65140518  0.29924432    -0.33200
H1089       H  0.68341145  0.65653800  0.32608171     0.28200
H1090       H  0.68521295  0.84356701  0.20255257     0.28200
H1091       H  0.70552360  0.82326792  0.29185577     0.18800
H1092       H  0.66880296  0.67624762  0.23499176     0.18800
C1093       C  0.66632940  0.75278540  0.88268141     0.85600
C1094       C  0.68803950  0.79864277  0.88669705    -0.54700
C1095       C  0.71464230  0.80110638  0.86761816     0.08500
C1096       C  0.71710758  0.75708719  0.84598836     0.19400
C1097       C  0.65778422  0.75188082  0.84758136    -0.55400
C1098       C  0.68446311  0.75434411  0.82849502     0.08600
C1099       C  0.68971745  0.70945112  0.88624226    -0.54900
C1100       C  0.71646493  0.71227644  0.86785111     0.09200
H1101       H  0.68288105  0.82654946  0.90359724     0.13700
H1102       H  0.73832499  0.75867156  0.83005602    -0.00600
H1103       H  0.63310501  0.74858367  0.83863618     0.14000
H1104       H  0.68490146  0.67646435  0.89968735     0.13800
C1105       C  0.66683965  0.74717556  0.64055021     0.85600
C1106       C  0.68868932  0.70226062  0.63585345    -0.54700
C1107       C  0.71585147  0.70105313  0.65415959     0.08500
C1108       C  0.71940817  0.74577019  0.67511492     0.19400
C1109       C  0.66007527  0.74765654  0.67556986    -0.55400
C1110       C  0.68735140  0.74800127  0.69369926     0.08600
C1111       C  0.69048082  0.79036540  0.63458255    -0.54900
C1112       C  0.71857783  0.78987279  0.65200755     0.09200
H1113       H  0.68435134  0.67452718  0.61854707     0.13700
H1114       H  0.74090122  0.74287688  0.69053893    -0.00600
H1115       H  0.63569408  0.74873787  0.68523071     0.14000
H1116       H  0.68487000  0.81895733  0.61804902     0.13800
O1117       O  0.54484549  0.70572862  0.54217458    -0.75300
O1118       O  0.48094639  0.70733557  0.98004103    -0.75400
O1119       O  0.54679263  0.70855527  0.98227814    -0.75400
O1120       O  0.47889039  0.70693993  0.54178156    -0.75500
O1121       O  0.48078662  0.78812446  0.54115390    -0.75400
O1122       O  0.54703650  0.78990222  0.98158207    -0.75400
O1123       O  0.48079474  0.78856820  0.97932084    -0.75400
O1124       O  0.54674477  0.78670188  0.54183759    -0.75400
Ni1125     Ni  0.51199025  0.70375077  0.51053481     1.25400
Ni1126     Ni  0.51390935  0.79070855  0.50985290     1.25400
C1127       C  0.55666558  0.74561668  0.55272557     0.86800
C1128       C  0.46958536  0.74757792  0.96954255     0.86800
C1129       C  0.55835162  0.74947552  0.97213251     0.86800
C1130       C  0.46837961  0.74783925  0.55134974     0.87000
C1131       C  0.35973034  0.74931569  0.88127638     0.85600
C1132       C  0.33349014  0.70848328  0.88530597    -0.54700
C1133       C  0.30669957  0.71308697  0.86655269     0.08500
C1134       C  0.30863552  0.75856548  0.84508695     0.19400
C1135       C  0.36753015  0.74882927  0.84623996    -0.55400
C1136       C  0.34087296  0.75243475  0.82703791     0.08600
C1137       C  0.34071781  0.79642200  0.88609837    -0.54900
C1138       C  0.31469643  0.80208689  0.86676949     0.09200
H1139       H  0.33517748  0.67742543  0.90089364     0.13700
H1140       H  0.28646844  0.76341784  0.83069347    -0.00600
H1141       H  0.39222507  0.74642641  0.83762792     0.14000
H1142       H  0.34746747  0.82345701  0.90328388     0.13800
C1143       C  0.35740348  0.74278419  0.63751473     0.85600
C1144       C  0.33135508  0.78144851  0.63006532    -0.54700
C1145       C  0.30544654  0.78065306  0.64957135     0.08500
C1146       C  0.30676689  0.73977179  0.67436785     0.19400
C1147       C  0.36567563  0.74983007  0.67221910    -0.55400
C1148       C  0.33924210  0.74872578  0.69151419     0.08600
C1149       C  0.33766959  0.69452580  0.63643349    -0.54900
C1150       C  0.31145440  0.69227151  0.65612111     0.09200
H1151       H  0.33212661  0.80783005  0.61111620     0.13700
H1152       H  0.28523640  0.73878726  0.68982940    -0.00600
H1153       H  0.39036630  0.75547968  0.68071415     0.14000
H1154       H  0.34387383  0.66478851  0.62125115     0.13800
C1155       C  0.85633188  0.50782913  0.88298328     0.85600
C1156       C  0.83301043  0.96133377  0.89076238    -0.54700
C1157       C  0.80697231  0.96427748  0.87109092     0.08500
C1158       C  0.80503077  0.50737244  0.84666106     0.19400
C1159       C  0.86427724  0.50472643  0.84811417    -0.55400
C1160       C  0.83757243  0.50517410  0.82899495     0.08600
C1161       C  0.83442164  0.55264983  0.88611546    -0.54900
C1162       C  0.80809726  0.55338382  0.86647059     0.09200
H1163       H  0.83470303  0.93044598  0.90652984     0.13700
H1164       H  0.78317304  0.50681018  0.83147923    -0.00600
H1165       H  0.88895940  0.50157728  0.83951560     0.14000
H1166       H  0.83871626  0.58093692  0.90300615     0.13800
C1167       C  0.85846367  0.00260518  0.64173899     0.85600
C1168       C  0.83455207  0.54317915  0.63445463    -0.54700
C1169       C  0.80650261  0.53936583  0.65121707     0.08500
C1170       C  0.80548743  0.99298992  0.67512227     0.19400
C1171       C  0.86433023  0.00089825  0.67733747    -0.55400
C1172       C  0.83515440  0.49591143  0.69300249     0.08600
C1173       C  0.83851636  0.95642539  0.63484463    -0.54900
C1174       C  0.81140542  0.95069252  0.65258798     0.09200
H1175       H  0.83791731  0.57304895  0.61801614     0.13700
H1176       H  0.78257314  0.99037758  0.68800038    -0.00600
H1177       H  0.88869190  0.00300073  0.68711324     0.14000
H1178       H  0.84567910  0.92963810  0.61788100     0.13800
O1179       O  0.04568783  0.95866973  0.54555782    -0.75300
O1180       O  0.98098474  0.96130469  0.98406406    -0.75400
O1181       O  0.04676627  0.95738954  0.98363939    -0.75400
O1182       O  0.97960547  0.96263993  0.54679125    -0.75500
O1183       O  0.98362588  0.54461402  0.54454695    -0.75400
O1184       O  0.04491333  0.53841914  0.98266157    -0.75400
O1185       O  0.97875819  0.53977867  0.98079128    -0.75400
O1186       O  0.04951024  0.54033208  0.54273739    -0.75400
Ni1187     Ni  0.01192158  0.95817200  0.51476513     1.25400
Ni1188     Ni  0.01536123  0.54403278  0.51192958     1.25400
C1189       C  0.05925934  0.49923600  0.55368198     0.86800
C1190       C  0.96704592  0.49946810  0.97039708     0.86800
C1191       C  0.05576307  0.49753400  0.97346870     0.86800
C1192       C  0.97093845  0.50541950  0.55606305     0.87000
C1193       C  0.16909520  0.99684129  0.88355914     0.85600
C1194       C  0.18676017  0.54705947  0.89145633    -0.54700
C1195       C  0.21357558  0.55104482  0.87289864     0.08500
C1196       C  0.22154667  0.00613521  0.84937787     0.19400
C1197       C  0.16225840  0.99845658  0.84830853    -0.55400
C1198       C  0.18547742  0.50318925  0.83322998     0.08600
C1199       C  0.19352467  0.95444149  0.88697342    -0.54900
C1200       C  0.22160572  0.95987442  0.87029151     0.09200
H1201       H  0.17991355  0.57540262  0.90746222     0.13700
H1202       H  0.24347467  0.01110930  0.83467808    -0.00600
H1203       H  0.13802514  0.99462495  0.83834667     0.14000
H1204       H  0.18875342  0.92067555  0.89926014     0.13800
C1205       C  0.16648624  0.48928575  0.64458947     0.85600
C1206       C  0.19080324  0.94458193  0.63831443    -0.54700
C1207       C  0.21807768  0.94436884  0.65638429     0.08500
C1208       C  0.21700408  0.48894211  0.68213956     0.19400
C1209       C  0.15762936  0.48808901  0.67952404    -0.55400
C1210       C  0.18860536  0.98870840  0.69597781     0.08600
C1211       C  0.18942815  0.53362568  0.64055640    -0.54900
C1212       C  0.21593774  0.53347412  0.65983785     0.09200
H1213       H  0.18515806  0.91367158  0.62383862     0.13700
H1214       H  0.23803628  0.48899702  0.69844586    -0.00600
H1215       H  0.13280091  0.48696055  0.68810210     0.14000
H1216       H  0.18511616  0.56264073  0.62357979     0.13800
C1217       C  0.18382752  0.50009055  0.79886906    -0.07000
C1218       C  0.20373840  0.96126722  0.78190915    -0.18200
C1219       C  0.20272507  0.95539233  0.74962831     0.10200
C1220       C  0.18163341  0.48964322  0.73350351    -0.07000
C1221       C  0.17021267  0.53214150  0.74733085    -0.18200
C1222       C  0.17120674  0.53789273  0.77973655     0.10200
S1223       S  0.21972253  0.90062375  0.73442500    -0.33200
S1224       S  0.15674864  0.59483488  0.79471257    -0.33200
H1225       H  0.17222828  0.59295161  0.82384376     0.28200
H1226       H  0.19500684  0.89396846  0.71206625     0.28200
H1227       H  0.21513739  0.93351709  0.79631793     0.18800
H1228       H  0.16142665  0.56174410  0.73266387     0.18800
C1229       C  0.08353398  0.49725915  0.95154376    -0.07000
C1230       C  0.08402347  0.52997655  0.92611176    -0.18200
C1231       C  0.11014825  0.53156872  0.90493849     0.10200
C1232       C  0.13817618  0.99408144  0.90412689    -0.07000
C1233       C  0.13300700  0.95505375  0.92551632    -0.18200
C1234       C  0.10683311  0.95355299  0.94617252     0.10200
S1235       S  0.10998407  0.57783668  0.87441296    -0.33200
S1236       S  0.10403388  0.90081284  0.97160402    -0.33200
H1237       H  0.07407411  0.88542150  0.95881275     0.28200
H1238       H  0.07827332  0.59476881  0.87937648     0.28200
H1239       H  0.06390117  0.55474347  0.92305867     0.18800
H1240       H  0.14914158  0.92471455  0.92725021     0.18800
C1241       C  0.08660407  0.49753027  0.57621384    -0.07000
C1242       C  0.08763039  0.52963758  0.60132523    -0.18200
C1243       C  0.11281203  0.52766170  0.62376326     0.10200
C1244       C  0.13749043  0.49182619  0.62154199    -0.07000
C1245       C  0.13799785  0.96265150  0.59336376    -0.18200
C1246       C  0.11227923  0.96435503  0.57220019     0.10200
S1247       S  0.11353516  0.57263569  0.65416526    -0.33200
S1248       S  0.11549892  0.92751316  0.53791437    -0.33200
H1249       H  0.10497203  0.96449976  0.51733256     0.28200
H1250       H  0.08396596  0.59523005  0.64644691     0.28200
H1251       H  0.06854530  0.55625833  0.60332845     0.18800
H1252       H  0.15806353  0.94019954  0.58687179     0.18800
C1253       C  0.88988662  0.00559653  0.62195627    -0.07000
C1254       C  0.90018377  0.54820819  0.60577136    -0.18200
C1255       C  0.92580608  0.54975503  0.58446822     0.10200
C1256       C  0.94488041  0.50784983  0.58004886    -0.07000
C1257       C  0.93921998  0.96835055  0.60147414    -0.18200
C1258       C  0.91321946  0.96760275  0.62276169     0.10200
S1259       S  0.93127487  0.60602334  0.56269886    -0.33200
S1260       S  0.91027845  0.91733665  0.65049817    -0.33200
H1261       H  0.93752473  0.89145388  0.64041511     0.28200
H1262       H  0.92896532  0.58314429  0.53362877     0.28200
H1263       H  0.88730017  0.58169417  0.60891776     0.18800
H1264       H  0.95668217  0.93911317  0.60195970     0.18800
C1265       C  0.94112448  0.50034662  0.94577144    -0.07000
C1266       C  0.93056843  0.54574334  0.93422960    -0.18200
C1267       C  0.90526259  0.54960762  0.91234641     0.10200
C1268       C  0.88721294  0.50717647  0.90357924    -0.07000
C1269       C  0.89098321  0.96668561  0.93297864    -0.18200
C1270       C  0.91709231  0.96588161  0.95397965     0.10200
S1271       S  0.90011493  0.60946351  0.89510349    -0.33200
S1272       S  0.91585315  0.92218284  0.98608246    -0.32800
H1273       H  0.89191388  0.89079629  0.97363284     0.28200
H1274       H  0.89311076  0.59215324  0.86525330     0.28200
H1275       H  0.94276789  0.57891337  0.94162881     0.18800
H1276       H  0.87186590  0.94062721  0.93736959     0.18800
C1277       C  0.83467323  0.49741212  0.72817291    -0.07000
C1278       C  0.85882939  0.52595513  0.74303221    -0.18200
C1279       C  0.86061813  0.52980258  0.77548844     0.10200
C1280       C  0.83872536  0.50243504  0.79438747    -0.07000
C1281       C  0.81802088  0.97214113  0.78265352    -0.18200
C1282       C  0.81401572  0.97126298  0.75027362     0.10200
S1283       S  0.89014354  0.57267989  0.79063014    -0.33200
S1284       S  0.77848349  0.93834099  0.73648115    -0.33200
H1285       H  0.76182257  0.93274421  0.76489544     0.28200
H1286       H  0.87030147  0.58953454  0.81457948     0.28200
H1287       H  0.87578970  0.54765616  0.72922271     0.18800
H1288       H  0.80103702  0.95185913  0.79725063     0.18800
C1289       C  0.24171262  0.57208388  0.65856617    -0.07000
C1290       C  0.25147350  0.59429050  0.68629074    -0.18200
C1291       C  0.27521860  0.63150013  0.68635818     0.10200
C1292       C  0.28854344  0.64928804  0.65792258    -0.07000
C1293       C  0.27926080  0.62600322  0.63026329    -0.18200
C1294       C  0.25691548  0.58690948  0.63039352     0.10200
S1295       S  0.28945562  0.65133771  0.72369378    -0.33200
S1296       S  0.25029422  0.55595736  0.59408984    -0.33200
H1297       H  0.24559444  0.50925012  0.60746664     0.28200
H1298       H  0.32233271  0.65149354  0.71470624     0.28200
H1299       H  0.24087414  0.58202282  0.70817575     0.18800
H1300       H  0.28956910  0.63814757  0.60825526     0.18800
C1301       C  0.28221115  0.82161650  0.64992080    -0.07000
C1302       C  0.29514612  0.86940555  0.65028238    -0.18200
C1303       C  0.27510309  0.91004082  0.65301900     0.10200
C1304       C  0.24113110  0.90291479  0.65569719    -0.07000
C1305       C  0.22826524  0.85496391  0.65545283    -0.18200
C1306       C  0.24828555  0.81452174  0.65213062     0.10200
S1307       S  0.29334644  0.97035366  0.65124020    -0.33200
S1308       S  0.22896601  0.75527997  0.64944750    -0.33200
H1309       H  0.25183966  0.73631701  0.62874452     0.28200
H1310       H  0.32606721  0.95587796  0.65234148     0.28200
H1311       H  0.32126644  0.87478951  0.64887133     0.18800
H1312       H  0.20222231  0.84891184  0.65741446     0.18800
C1313       C  0.29349705  0.84544674  0.86811728    -0.07000
C1314       C  0.27533990  0.85245786  0.89511017    -0.18200
C1315       C  0.25444709  0.89211722  0.89768997     0.10200
C1316       C  0.24831367  0.92273917  0.87123908    -0.07000
C1317       C  0.26811269  0.91699269  0.84489333    -0.18200
C1318       C  0.29186928  0.88083565  0.84394319     0.10200
S1319       S  0.23957608  0.90367059  0.93632985    -0.33200
S1320       S  0.32145289  0.88583609  0.81316978    -0.33200
H1321       H  0.34651766  0.86128014  0.82902428     0.28200
H1322       H  0.23992137  0.95467144  0.93257775     0.28200
H1323       H  0.27839120  0.82773062  0.91482967     0.18800
H1324       H  0.26585402  0.94113961  0.82492272     0.18800
C1325       C  0.23566074  0.59467381  0.87205427    -0.07000
C1326       C  0.24342519  0.61580861  0.84302564    -0.18200
C1327       C  0.26511761  0.65576287  0.84030460     0.10200
C1328       C  0.27956573  0.67567976  0.86740714    -0.07000
C1329       C  0.27037543  0.65575244  0.89656085    -0.18200
C1330       C  0.24945547  0.61513275  0.89913785     0.10200
S1331       S  0.27558898  0.67734251  0.80178491    -0.33200
S1332       S  0.24380570  0.58874337  0.93745620    -0.33200
H1333       H  0.24452774  0.54027293  0.92738356     0.28200
H1334       H  0.24910187  0.65550718  0.78615810     0.28200
H1335       H  0.23299800  0.60007833  0.82221352     0.18800
H1336       H  0.28076248  0.67062529  0.91767597     0.18800
C1337       C  0.34230915  0.75109215  0.79219537    -0.07000
C1338       C  0.32028544  0.77997515  0.77541040    -0.18200
C1339       C  0.32002472  0.78219522  0.74293620     0.10200
C1340       C  0.34164637  0.75322617  0.72600300    -0.07000
C1341       C  0.36386410  0.72399770  0.74250958    -0.18200
C1342       C  0.36395078  0.72163661  0.77519850     0.10200
S1343       S  0.29328767  0.82514807  0.72411798    -0.33200
S1344       S  0.38940734  0.67595341  0.79304083    -0.33200
H1345       H  0.36636961  0.66180697  0.81572612     0.28200
H1346       H  0.27393984  0.83492206  0.75014453     0.28200
H1347       H  0.30295215  0.80139723  0.78772359     0.18800
H1348       H  0.37987522  0.70036776  0.72980873     0.18800
C1349       C  0.44259298  0.74630300  0.94642309    -0.07000
C1350       C  0.43988511  0.78406000  0.92418361    -0.18200
C1351       C  0.41437460  0.78469093  0.90214550     0.10200
C1352       C  0.39024326  0.74680888  0.90242865    -0.07000
C1353       C  0.39438280  0.70796433  0.92399385    -0.18200
C1354       C  0.41934157  0.70786724  0.94610586     0.10200
S1355       S  0.41310410  0.83464776  0.87408222    -0.33200
S1356       S  0.41834801  0.65875986  0.97463122    -0.33200
H1357       H  0.42303795  0.68967094  0.00017550     0.28200
H1358       H  0.44210735  0.85833062  0.88324445     0.28200
H1359       H  0.45793172  0.81320767  0.92409980     0.18800
H1360       H  0.37802548  0.67717183  0.92500763     0.18800
C1361       C  0.44118264  0.74832549  0.57406105    -0.07000
C1362       C  0.43702727  0.70880040  0.59499763    -0.18200
C1363       C  0.41116279  0.70692197  0.61647433     0.10200
C1364       C  0.38790918  0.74487632  0.61656216    -0.07000
C1365       C  0.39416592  0.78608872  0.59719702    -0.18200
C1366       C  0.41931982  0.78747196  0.57551317     0.10200
S1367       S  0.40923593  0.65675677  0.64433371    -0.33200
S1368       S  0.42066789  0.83961227  0.54933262    -0.33200
H1369       H  0.42386233  0.81132088  0.52245351     0.28200
H1370       H  0.43517213  0.62987519  0.63238335     0.28200
H1371       H  0.45442610  0.67949333  0.59475886     0.18800
H1372       H  0.37989404  0.81857494  0.59846575     0.18800
C1373       C  0.74527487  0.82810600  0.64928841    -0.07000
C1374       C  0.76794517  0.83291885  0.67389270    -0.18200
C1375       C  0.79208531  0.86917046  0.67352715     0.10200
C1376       C  0.79073145  0.90650103  0.65079699    -0.07000
C1377       C  0.77054351  0.90017452  0.62488339    -0.18200
C1378       C  0.74955753  0.85969882  0.62285122     0.10200
S1379       S  0.82545447  0.86269487  0.70078618    -0.33200
S1380       S  0.73363539  0.84778890  0.58447225    -0.33200
H1381       H  0.73518867  0.79671448  0.58776230     0.28200
H1382       H  0.84852369  0.88945306  0.68339689     0.28200
H1383       H  0.76791645  0.80808967  0.69356017     0.18800
H1384       H  0.77232278  0.92572840  0.60542662     0.18800
C1385       C  0.78230379  0.57965020  0.65155584    -0.07000
C1386       C  0.79428958  0.62790792  0.65196933    -0.18200
C1387       C  0.77346227  0.66774399  0.65145063     0.10200
C1388       C  0.73941875  0.66008463  0.65315059    -0.07000
C1389       C  0.72729426  0.61183526  0.65319200    -0.18200
C1390       C  0.74815613  0.57187058  0.65140358     0.10200
S1391       S  0.79209790  0.72669575  0.64518284    -0.33200
S1392       S  0.72946508  0.51277891  0.64625573    -0.33200
H1393       H  0.75245059  0.49855343  0.62416567     0.28200
H1394       H  0.76944594  0.74031945  0.62210793     0.28200
H1395       H  0.82032077  0.63492339  0.65179564     0.18800
H1396       H  0.70122512  0.60519803  0.65376371     0.18800
C1397       C  0.63542122  0.74776176  0.62072687    -0.07000
C1398       C  0.62254402  0.70317409  0.60991215    -0.18200
C1399       C  0.59673273  0.70095394  0.58869935     0.10200
C1400       C  0.58230481  0.74456875  0.57754475    -0.07000
C1401       C  0.59278285  0.78883536  0.59065278    -0.18200
C1402       C  0.61792565  0.79083824  0.61286284     0.10200
S1403       S  0.58405294  0.64068713  0.57709967    -0.33200
S1404       S  0.62472266  0.84957161  0.63050242    -0.33200
H1405       H  0.63381899  0.83155516  0.65993821     0.28200
H1406       H  0.55184418  0.64694586  0.58726086     0.28200
H1407       H  0.63206790  0.66888217  0.61837435     0.18800
H1408       H  0.58089533  0.82248776  0.58397116     0.18800
C1409       C  0.78445473  0.59428311  0.86581278    -0.07000
C1410       C  0.77572265  0.61492445  0.89429412    -0.18200
C1411       C  0.75465303  0.65452727  0.89550592     0.10200
C1412       C  0.74068901  0.67287291  0.86767530    -0.07000
C1413       C  0.74905172  0.65242569  0.83925352    -0.18200
C1414       C  0.77098404  0.61399046  0.83790698     0.10200
S1415       S  0.74724776  0.68295647  0.93251880    -0.33200
S1416       S  0.78207551  0.59480117  0.79963133    -0.33200
H1417       H  0.81540388  0.59876172  0.80629464     0.28200
H1418       H  0.76816238  0.65367318  0.95060306     0.28200
H1419       H  0.78551277  0.60001229  0.91578744     0.18800
H1420       H  0.73858476  0.66679623  0.81784009     0.18800
C1421       C  0.73861808  0.84270619  0.86788410    -0.07000
C1422       C  0.72705464  0.89085447  0.86849212    -0.18200
C1423       C  0.74855479  0.93132506  0.86932993     0.10200
C1424       C  0.78245906  0.92370832  0.86893229    -0.07000
C1425       C  0.79393382  0.87572916  0.86790126    -0.18200
C1426       C  0.77265624  0.83532832  0.86802425     0.10200
S1427       S  0.73250556  0.99200028  0.87297127    -0.33200
S1428       S  0.78976508  0.77503608  0.87125194    -0.33200
H1429       H  0.82277843  0.78892809  0.86905839     0.28200
H1430       H  0.69933591  0.97862237  0.87192409     0.28200
H1431       H  0.70103507  0.89667227  0.86858299     0.18800
H1432       H  0.81995087  0.86991176  0.86768073     0.18800
C1433       C  0.63723750  0.75184883  0.90542079    -0.07000
C1434       C  0.63743161  0.72025156  0.93183774    -0.18200
C1435       C  0.61227196  0.71891515  0.95353209     0.10200
C1436       C  0.58562141  0.75012969  0.94970311    -0.07000
C1437       C  0.58564319  0.78361489  0.92461559    -0.18200
C1438       C  0.61114087  0.78528202  0.90270899     0.10200
S1439       S  0.61704373  0.67884634  0.98698602    -0.33200
S1440       S  0.61053308  0.83200965  0.87250530    -0.33200
H1441       H  0.57901063  0.84906502  0.87829034     0.28200
H1442       H  0.60551447  0.71249228  0.00861298     0.28200
H1443       H  0.65802520  0.69793721  0.93751995     0.18800
H1444       H  0.56560584  0.80870499  0.92231287     0.18800
C1445       C  0.68312140  0.75249483  0.79400747    -0.07000
C1446       C  0.69611582  0.79223122  0.77704737    -0.18200
C1447       C  0.69663576  0.79248877  0.74445039     0.10200
C1448       C  0.68565890  0.75093414  0.72817862    -0.07000
C1449       C  0.67227719  0.71135358  0.74510549    -0.18200
C1450       C  0.67093309  0.71159711  0.77775550     0.10200
S1451       S  0.70946173  0.84821386  0.72519451    -0.33200
S1452       S  0.65436241  0.65803775  0.79713543    -0.33200
H1453       H  0.67505998  0.65974563  0.82320631     0.28200
H1454       H  0.68763789  0.84412862  0.70003838     0.28200
H1455       H  0.70517104  0.82393578  0.78933841     0.18800
H1456       H  0.66337294  0.67960471  0.73278957     0.18800
loop_ 
_geom_bond_atom_site_label_1 
_geom_bond_atom_site_label_2 
_geom_bond_distance 
_geom_bond_site_symmetry_2 
_ccdc_geom_bond_type 
C1            C2   1.538       .  S
C1            C7   1.549       .  S
C1            C5   1.541       .  S
C1          C341   1.542       .  S
C2            H9   1.086       .  S
C2            C3   1.365       .  D
C3            C4   1.539       .  S
C3          C329   1.491       .  S
C4            C8   1.536       .  S
C4            C6   1.535       .  S
C4           H10   1.110       .  S
C5           H11   1.086       .  S
C5            C6   1.367       .  D
C6          C353   1.477       .  S
C7           H12   1.080       .  S
C7            C8   1.362       .  D
C8          C320   1.487       .  S
C13          C14   1.550       .  S
C13          C19   1.538       .  S
C13          C17   1.531       .  S
C13         C305   1.540       .  S
C14          H21   1.081       .  S
C14          C15   1.364       .  D
C15          C16   1.536       .  S
C15         C296   1.498       .  S
C16          C20   1.553       .  S
C16          C18   1.538       .  S
C16          H22   1.103       .  S
C17          H23   1.086       .  S
C17          C18   1.361       .  D
C18         C356   1.477       .  S
C19          H24   1.079       .  S
C19          C20   1.371       .  D
C20         C281   1.508       .  S
O25         Ni33   1.904       .  S
O25          C35   1.277       .  A
O26        Ni397   1.908       .  S
O26          C36   1.280       .  A
O27        Ni397   1.909       .  S
O27          C37   1.280       .  A
O28         Ni33   1.922       .  S
O28          C38   1.282       .  A
O29         Ni34   1.912       .  S
O29          C38   1.280       .  A
O30        Ni398   1.923       .  S
O30          C37   1.282       .  A
O31        Ni398   1.922       .  S
O31          C36   1.282       .  A
O32         Ni34   1.926       .  S
O32          C35   1.284       .  A
Ni33        O390   1.904   1_554  S
Ni33        O391   1.921   1_554  S
Ni33        Ni34   2.385       .  S
Ni34        O394   1.917   1_554  S
Ni34        O395   1.926   1_554  S
C35         C308   1.490       .  S
C36         C257   1.480       .  S
C37         C344   1.479       .  S
C38         C269   1.482       .  S
C39          C40   1.547       .  S
C39          C45   1.535       .  S
C39          C43   1.543       .  S
C39         C260   1.546       .  S
C40          H47   1.077       .  S
C40          C41   1.360       .  D
C41          C42   1.538       .  S
C41         C236   1.496       .  S
C42          C46   1.541       .  S
C42          C44   1.549       .  S
C42          H48   1.108       .  S
C43          H49   1.084       .  S
C43          C44   1.373       .  D
C44         C245   1.498       .  S
C45          H50   1.086       .  S
C45          C46   1.360       .  D
C46         C221   1.483       .  S
C51          C52   1.548       .  S
C51          C57   1.538       .  S
C51          C55   1.544       .  S
C51         C272   1.546       .  S
C52          H59   1.078       .  S
C52          C53   1.361       .  D
C53          C54   1.539       .  S
C53         C209   1.493       .  S
C54          C58   1.542       .  S
C54          C56   1.540       .  S
C54          H60   1.109       .  S
C55          H61   1.086       .  S
C55          C56   1.368       .  D
C56         C248   1.492       .  S
C57          H62   1.086       .  S
C57          C58   1.366       .  D
C58         C200   1.488       .  S
C63          C69   1.534       .  S
C63          C67   1.547   1_545  S
C63         C792   1.547   1_545  S
C63         C176   1.547       .  S
C64         C791   1.547       .  S
C64          H71   1.080       .  S
C64          C65   1.360       .  D
C65         C794   1.534       .  S
C65         C332   1.490       .  S
C66          C70   1.535       .  S
C66          C68   1.543       .  S
C66         C793   1.536   1_545  S
C66          H72   1.108       .  S
C67          H73   1.085       .  S
C67          C68   1.373   1_565  D
C68         C188   1.494   1_545  S
C69          H74   1.086       .  S
C69          C70   1.366       .  D
C70         C317   1.488       .  S
C75          C81   1.529       .  S
C75          C79   1.549       .  S
C75         C804   1.543       .  S
C75         C161   1.547       .  S
C76         C803   1.544   1_545  S
C76          H83   1.079       .  S
C76          C77   1.360       .  D
C77         C806   1.534   1_545  S
C77         C293   1.490       .  S
C78          C82   1.544       .  S
C78         C805   1.536       .  S
C78         C808   1.544       .  S
C78          H84   1.098       .  S
C79          H85   1.084       .  S
C79         C808   1.382       .  D
C80         C806   1.544       .  S
C80         C807   1.380       .  D
C80         C185   1.516       .  S
C81          H86   1.087       .  S
C81          C82   1.357       .  D
C82         C284   1.474       .  S
O87         Ni95   1.906       .  S
O87         C825   1.278       .  A
O88        Ni459   1.910   1_655  S
O88         C826   1.280       .  A
O89        Ni459   1.917       .  S
O89         C827   1.280       .  A
O90         Ni95   1.920   1_655  S
O90         C828   1.281       .  A
O91         Ni96   1.923   1_655  S
O91         C100   1.282       .  A
O92        Ni460   1.917       .  S
O92          C99   1.282   1_545  A
O93        Ni460   1.923   1_655  S
O93          C98   1.281       .  A
O94         Ni96   1.929       .  S
O94          C97   1.283       .  A
Ni95        O452   1.913   1_454  S
Ni95        O453   1.925   1_554  S
Ni95       Ni824   2.382       .  S
Ni96        O456   1.927   1_554  S
Ni96        O457   1.927   1_454  S
Ni96       Ni823   2.381   1_545  S
C97         O815   1.278   1_545  A
C97         C149   1.488       .  S
C98         O816   1.280   1_545  A
C98         C173   1.478       .  S
C99         O817   1.281       .  A
C99         C137   1.496       .  S
C100        O818   1.281   1_545  A
C100        C164   1.492       .  S
C101        C107   1.549       .  S
C101        C105   1.536       .  S
C101        C830   1.546       .  S
C101        C140   1.547       .  S
C102        C829   1.545       .  S
C102        H109   1.084       .  S
C102        C103   1.367       .  D
C103        C832   1.536       .  S
C103        C233   1.490       .  S
C104        C108   1.544       .  S
C104        C831   1.535       .  S
C104        C834   1.543       .  S
C104        H110   1.107       .  S
C105        H111   1.086       .  S
C105        C834   1.367       .  D
C106        C832   1.538       .  S
C106        C833   1.363       .  D
C106        C125   1.479       .  S
C107        H112   1.073       .  S
C107        C108   1.366       .  D
C108        C224   1.509       .  S
C113        C119   1.539   1_565  S
C113        C117   1.539       .  S
C113        C842   1.547       .  S
C113        C152   1.542       .  S
C114        C841   1.547       .  S
C114        H121   1.083       .  S
C114        C115   1.360       .  D
C115        C844   1.539       .  S
C115        C212   1.490       .  S
C116        C120   1.543   1_565  S
C116        C843   1.534       .  S
C116        C846   1.538       .  S
C116        H122   1.110       .  S
C117        H123   1.086       .  S
C117        C846   1.368       .  D
C118        C844   1.540       .  S
C118        C845   1.367       .  D
C118        C856   1.492       .  S
C119        H124   1.085       .  S
C119        C120   1.369       .  D
C120        C197   1.488       .  S
C125        C130   1.414       .  A
C125        C854   1.401   1_545  A
C126        C127   1.396       .  A
C126        C853   1.399       .  A
C126        H135   1.081       .  S
C127        C856   1.413       .  A
C127        S131   1.794       .  S
C128        C846   1.482   1_545  S
C128        C129   1.404       .  A
C128        C855   1.410   1_545  A
C129        C130   1.403       .  A
C129        H136   1.084       .  S
C130        S132   1.805       .  S
S131        H134   1.406       .  S
S132        H133   1.403       .  S
C137        C138   1.407   1_565  A
C137        C870   1.415       .  A
C138        C139   1.407       .  A
C138        H147   1.082       .  S
C139        C868   1.422       .  A
C139        S143   1.812       .  S
C140        C141   1.413       .  A
C140        C867   1.422       .  A
C141        C142   1.397       .  A
C141        H148   1.073       .  S
C142        C865   1.414       .  A
C142        S144   1.802       .  S
S143        H146   1.406       .  S
S144        H145   1.408       .  S
C149        C150   1.407       .  A
C149        C882   1.413   1_545  A
C150        C151   1.411       .  A
C150        H159   1.082       .  S
C151        C152   1.421   1_545  A
C151        S155   1.809       .  S
C152        C881   1.409       .  A
C153        C154   1.398       .  A
C153        C880   1.409       .  A
C153        H160   1.076       .  S
C154        C877   1.418       .  A
C154        S156   1.812       .  S
S155        H158   1.406       .  S
S156        H157   1.407       .  S
C161        C166   1.425       .  A
C161        C890   1.416       .  A
C162        C163   1.399       .  A
C162        C889   1.415       .  A
C162        H171   1.073       .  S
C163        C164   1.412       .  A
C163        S167   1.802       .  S
C164        C893   1.405   1_545  A
C165        C166   1.408       .  A
C165        C892   1.402       .  A
C165        H172   1.083       .  S
C166        S168   1.810       .  S
S167        H170   1.408       .  S
S168        H169   1.406       .  S
C173        C174   1.400       .  A
C173        C906   1.406   1_545  A
C174        C175   1.409       .  A
C174        H183   1.083       .  S
C175        C176   1.424       .  A
C175        S179   1.806       .  S
C176        C905   1.415   1_545  A
C177        C178   1.398       .  A
C177        C904   1.415       .  A
C177        H184   1.072       .  S
C178        C901   1.407       .  A
C178        S180   1.812       .  S
S179        H182   1.406       .  S
S180        H181   1.407       .  S
C185        C186   1.413   1_565  A
C185        C918   1.429       .  A
C186        C187   1.402       .  A
C186        H195   1.082       .  S
C187        C188   1.413   1_545  A
C187        S191   1.801       .  S
C188        C917   1.399       .  A
C189        C190   1.400       .  A
C189        C916   1.399       .  A
C189        H196   1.083       .  S
C190        C913   1.429       .  A
C190        S192   1.806       .  S
S191        H194   1.402       .  S
S192        H193   1.408       .  S
C197        C198   1.404       .  A
C197        C202   1.417       .  A
C198        C199   1.400       .  A
C198        H207   1.084       .  S
C199        C200   1.411       .  A
C199        S203   1.796       .  S
C200        C201   1.403       .  A
C201        C202   1.399       .  A
C201        H208   1.084       .  S
C202        S204   1.804       .  S
S203        H206   1.406       .  S
S204        H205   1.407       .  S
C209        C210   1.409       .  A
C209        C214   1.412       .  A
C210        C211   1.402       .  A
C210        H219   1.082       .  S
C211        C212   1.409       .  A
C211        S215   1.806       .  S
C212        C213   1.408       .  A
C213        C214   1.400       .  A
C213        H220   1.084       .  S
C214        S216   1.801       .  S
S215        H218   1.406       .  S
S216        H217   1.405       .  S
C221        C222   1.398       .  A
C221        C226   1.411       .  A
C222        C223   1.400       .  A
C222        H231   1.084       .  S
C223        C224   1.426       .  A
C223        S227   1.805       .  S
C224        C225   1.409       .  A
C225        C226   1.400       .  A
C225        H232   1.078       .  S
C226        S228   1.802       .  S
S227        H230   1.406       .  S
S228        H229   1.405       .  S
C233        C234   1.405       .  A
C233        C238   1.412       .  A
C234        C235   1.404       .  A
C234        H243   1.082       .  S
C235        C236   1.413       .  A
C235        S239   1.802       .  S
C236        C237   1.409       .  A
C237        C238   1.399       .  A
C237        H244   1.084       .  S
C238        S240   1.802       .  S
S239        H242   1.406       .  S
S240        H241   1.405       .  S
C245        C246   1.400       .  A
C245        C250   1.420       .  A
C246        C247   1.396       .  A
C246        H255   1.076       .  S
C247        C248   1.410       .  A
C247        S251   1.801       .  S
C248        C249   1.405       .  A
C249        C250   1.406       .  A
C249        H256   1.084       .  S
C250        S252   1.802       .  S
S251        H254   1.405       .  S
S252        H253   1.407       .  S
C257        C258   1.403       .  A
C257        C262   1.408       .  A
C258        C259   1.410       .  A
C258        H267   1.082       .  S
C259        C260   1.425       .  A
C259        S263   1.810       .  S
C260        C261   1.413       .  A
C261        C262   1.389       .  A
C261        H268   1.070       .  S
C262        S264   1.808       .  S
S263        H266   1.406       .  S
S264        H265   1.406       .  S
C269        C270   1.404       .  A
C269        C274   1.409       .  A
C270        C271   1.410       .  A
C270        H279   1.082       .  S
C271        C272   1.424       .  A
C271        S275   1.810       .  S
C272        C273   1.413       .  A
C273        C274   1.393       .  A
C273        H280   1.072       .  S
C274        S276   1.806       .  S
S275        H278   1.406       .  S
S276        H277   1.407       .  S
C281        C282   1.411       .  A
C281        C286   1.428       .  A
C282        C283   1.394       .  A
C282        H291   1.077       .  S
C283        C284   1.404       .  A
C283        S287   1.807       .  S
C284        C285   1.396       .  A
C285        C286   1.400       .  A
C285        H292   1.084       .  S
C286        S288   1.803       .  S
S287        H290   1.402       .  S
S288        H289   1.408       .  S
C293        C294   1.403       .  A
C293        C298   1.411       .  A
C294        C295   1.396       .  A
C294        H303   1.084       .  S
C295        C296   1.416       .  A
C295        S299   1.795       .  S
C296        C297   1.409       .  A
C297        C298   1.401       .  A
C297        H304   1.083       .  S
C298        S300   1.798       .  S
S299        H302   1.406       .  S
S300        H301   1.405   1_545  S
C305        C306   1.409       .  A
C305        C310   1.422       .  A
C306        C307   1.394       .  A
C306        H315   1.077       .  S
C307        C308   1.416       .  A
C307        S311   1.803       .  S
C308        C309   1.406       .  A
C309        C310   1.406       .  A
C309        H316   1.082       .  S
C310        S312   1.811       .  S
S311        H314   1.408       .  S
S312        H313   1.406       .  S
C317        C318   1.403       .  A
C317        C322   1.415       .  A
C318        C319   1.400       .  A
C318        H327   1.082       .  S
C319        C320   1.416       .  A
C319        S323   1.810       .  S
C320        C321   1.402       .  A
C321        C322   1.399       .  A
C321        H328   1.083       .  S
C322        S324   1.799       .  S
S323        H326   1.406       .  S
S324        H325   1.401       .  S
C329        C330   1.409       .  A
C329        C334   1.413       .  A
C330        C331   1.406       .  A
C330        H339   1.083       .  S
C331        C332   1.409       .  A
C331        S335   1.806       .  S
C332        C333   1.405       .  A
C333        C334   1.401       .  A
C333        H340   1.082       .  S
C334        S336   1.807       .  S
S335        H338   1.407       .  S
S336        H337   1.406       .  S
C341        C342   1.413       .  A
C341        C346   1.425       .  A
C342        C343   1.393       .  A
C342        H351   1.074       .  S
C343        C344   1.408       .  A
C343        S347   1.806       .  S
C344        C345   1.402       .  A
C345        C346   1.409       .  A
C345        H352   1.083       .  S
C346        S348   1.810       .  S
S347        H350   1.407       .  S
S348        H349   1.407       .  S
C353        C354   1.402       .  A
C353        C358   1.415       .  A
C354        C355   1.401       .  A
C354        H363   1.084       .  S
C355        C356   1.413       .  A
C355        S359   1.803       .  S
C356        C357   1.400       .  A
C357        C358   1.400       .  A
C357        H364   1.084       .  S
C358        S360   1.805       .  S
S359        H362   1.404       .  S
S360        H361   1.401       .  S
C365        C366   1.545       .  S
C365        C371   1.547       .  S
C365        C369   1.542       .  S
C365        C705   1.547       .  S
C366        H373   1.086       .  S
C366        C367   1.369       .  D
C367        C368   1.537       .  S
C367        C693   1.495       .  S
C368        C372   1.534       .  S
C368        C370   1.535       .  S
C368        H374   1.110       .  S
C369        H375   1.086       .  S
C369        C370   1.368       .  D
C370        C717   1.481       .  S
C371        H376   1.079       .  S
C371        C372   1.360       .  D
C372        C684   1.481       .  S
C377        C378   1.550       .  S
C377        C383   1.539       .  S
C377        C381   1.529       .  S
C377        C669   1.538       .  S
C378        H385   1.084       .  S
C378        C379   1.365       .  D
C379        C380   1.536       .  S
C379        C660   1.492       .  S
C380        C384   1.551       .  S
C380        C382   1.542       .  S
C380        H386   1.105       .  S
C381        H387   1.086       .  S
C381        C382   1.360       .  D
C382        C720   1.481       .  S
C383        H388   1.076       .  S
C383        C384   1.369       .  D
C384        C645   1.508       .  S
O389       Ni397   1.908       .  S
O389        C399   1.278       .  A
O390        C400   1.279       .  A
O391        C401   1.283       .  A
O392       Ni397   1.917       .  S
O392        C402   1.280       .  A
O393       Ni398   1.918       .  S
O393        C402   1.282       .  A
O394        C401   1.280       .  A
O395        C400   1.283       .  A
O396       Ni398   1.921       .  S
O396        C399   1.283       .  A
Ni397      Ni398   2.385       .  S
C399        C672   1.491       .  S
C400        C621   1.478       .  S
C401        C708   1.482       .  S
C402        C633   1.478       .  S
C403        C404   1.549       .  S
C403        C409   1.532       .  S
C403        C407   1.542       .  S
C403        C624   1.542       .  S
C404        H411   1.080       .  S
C404        C405   1.363       .  D
C405        C406   1.538       .  S
C405        C600   1.498       .  S
C406        C410   1.544       .  S
C406        C408   1.551       .  S
C406        H412   1.108       .  S
C407        H413   1.084       .  S
C407        C408   1.372       .  D
C408        C609   1.499       .  S
C409        H414   1.087       .  S
C409        C410   1.359       .  D
C410        C585   1.487       .  S
C415        C416   1.546       .  S
C415        C421   1.538       .  S
C415        C419   1.548       .  S
C415        C636   1.548       .  S
C416        H423   1.078       .  S
C416        C417   1.357       .  D
C417        C418   1.535       .  S
C417        C573   1.483       .  S
C418        C422   1.542       .  S
C418        C420   1.541       .  S
C418        H424   1.109       .  S
C419        H425   1.086       .  S
C419        C420   1.373       .  D
C420        C612   1.496       .  S
C421        H426   1.086       .  S
C421        C422   1.366       .  D
C422        C564   1.493       .  S
C427       C1156   1.550   1_545  S
C427        C433   1.538       .  S
C427        C431   1.546   1_545  S
C427        C540   1.548       .  S
C428       C1155   1.545       .  S
C428        H435   1.085       .  S
C428        C429   1.366       .  D
C429       C1158   1.539       .  S
C429        C696   1.493       .  S
C430       C1157   1.535   1_545  S
C430        C434   1.536       .  S
C430        C432   1.542       .  S
C430        H436   1.108       .  S
C431        H437   1.085       .  S
C431        C432   1.371   1_565  D
C432        C552   1.492   1_545  S
C433        H438   1.086       .  S
C433        C434   1.366       .  D
C434        C681   1.490       .  S
C439       C1168   1.545       .  S
C439        C445   1.535       .  S
C439        C443   1.544       .  S
C439        C525   1.545       .  S
C440       C1167   1.546       .  S
C440        H447   1.077       .  S
C440        C441   1.362       .  D
C441       C1170   1.535   1_545  S
C441        C657   1.498       .  S
C442       C1169   1.536       .  S
C442        C446   1.544       .  S
C442       C1172   1.541       .  S
C442        H448   1.096       .  S
C443        H449   1.085       .  S
C443       C1172   1.379       .  D
C444       C1170   1.544       .  S
C444       C1171   1.382   1_565  D
C444        C549   1.517       .  S
C445        H450   1.086       .  S
C445        C446   1.359       .  D
C446        C648   1.475       .  S
O451       Ni459   1.912       .  S
O451       C1189   1.280       .  A
O452       C1190   1.279       .  A
O453       C1191   1.283       .  A
O454       Ni459   1.919   1_655  S
O454       C1192   1.282       .  A
O455       Ni460   1.913   1_655  S
O455        C464   1.281       .  A
O456        C463   1.283   1_545  A
O457        C462   1.283       .  A
O458       Ni460   1.920       .  S
O458        C461   1.281   1_545  A
Ni459     Ni1188   2.383       .  S
Ni460     Ni1187   2.385   1_545  S
C461       O1179   1.280       .  A
C461        C513   1.475       .  S
C462       O1180   1.278   1_545  A
C462        C537   1.483       .  S
C463       O1181   1.281       .  A
C463        C501   1.494       .  S
C464       O1182   1.282   1_545  A
C464        C528   1.485       .  S
C465       C1194   1.539       .  S
C465        C471   1.548       .  S
C465        C469   1.540       .  S
C465        C504   1.545       .  S
C466       C1193   1.543   1_545  S
C466        H473   1.085       .  S
C466        C467   1.365       .  D
C467       C1196   1.536       .  S
C467        C597   1.491       .  S
C468       C1195   1.536       .  S
C468        C472   1.547       .  S
C468       C1198   1.541       .  S
C468        H474   1.107       .  S
C469        H475   1.086       .  S
C469       C1198   1.367       .  D
C470       C1196   1.542       .  S
C470       C1197   1.368   1_545  D
C470        C489   1.483       .  S
C471        H476   1.079       .  S
C471        C472   1.368       .  D
C472        C588   1.507       .  S
C477       C1206   1.545       .  S
C477        C483   1.536   1_565  S
C477        C481   1.544       .  S
C477        C516   1.542       .  S
C478       C1205   1.547       .  S
C478        H485   1.079       .  S
C478        C479   1.362       .  D
C479       C1208   1.537       .  S
C479        C576   1.491       .  S
C480       C1207   1.538       .  S
C480        C484   1.541   1_565  S
C480       C1210   1.540       .  S
C480        H486   1.110       .  S
C481        H487   1.085       .  S
C481       C1210   1.369       .  D
C482       C1208   1.538       .  S
C482       C1209   1.369       .  D
C482       C1220   1.484       .  S
C483        H488   1.086       .  S
C483        C484   1.366       .  D
C484        C561   1.489       .  S
C489       C1218   1.401   1_545  A
C489        C494   1.414       .  A
C490       C1217   1.402       .  A
C490        C491   1.400       .  A
C490        H499   1.084       .  S
C491       C1220   1.412       .  A
C491        S495   1.801       .  S
C492       C1210   1.486       .  S
C492       C1219   1.411       .  A
C492        C493   1.405   1_565  A
C493        C494   1.404       .  A
C493        H500   1.084       .  S
C494        S496   1.803       .  S
S495        H498   1.406       .  S
S496        H497   1.405       .  S
C501        C502   1.406   1_565  A
C501       C1234   1.412       .  A
C502        C503   1.410       .  A
C502        H511   1.082       .  S
C503       C1232   1.424   1_545  A
C503        S507   1.810       .  S
C504       C1231   1.425       .  A
C504        C505   1.415       .  A
C505        C506   1.397       .  A
C505        H512   1.077       .  S
C506       C1229   1.408       .  A
C506        S508   1.803       .  S
S507        H510   1.406       .  S
S508        H509   1.406   1_556  S
C513        C514   1.402   1_565  A
C513       C1246   1.405       .  A
C514        C515   1.409       .  A
C514        H523   1.083       .  S
C515        C516   1.424   1_545  A
C515        S519   1.809       .  S
C516       C1245   1.414       .  A
C517       C1244   1.415       .  A
C517        C518   1.393       .  A
C517        H524   1.074       .  S
C518       C1241   1.406       .  A
C518        S520   1.804       .  S
S519        H522   1.406       .  S
S520        H521   1.407       .  S
C525       C1254   1.411       .  A
C525        C530   1.421       .  A
C526       C1253   1.414       .  A
C526        C527   1.398       .  A
C526        H535   1.068       .  S
C527        C528   1.410       .  A
C527        S531   1.814       .  S
C528       C1257   1.403   1_545  A
C529       C1256   1.406       .  A
C529        C530   1.407       .  A
C529        H536   1.082       .  S
C530        S532   1.810       .  S
S531        H534   1.406       .  S
S532        H533   1.406       .  S
C537        C538   1.401       .  A
C537       C1270   1.410   1_545  A
C538        C539   1.407       .  A
C538        H547   1.082       .  S
C539        C540   1.425       .  A
C539        S543   1.808       .  S
C540       C1269   1.413   1_545  A
C541       C1268   1.410       .  A
C541        C542   1.399       .  A
C541        H548   1.082       .  S
C542       C1265   1.419       .  A
C542        S544   1.802       .  S
S543        H546   1.406       .  S
S544        H545   1.408       .  S
C549        C550   1.413   1_565  A
C549       C1282   1.431       .  A
C550        C551   1.402       .  A
C550        H559   1.082       .  S
C551        C552   1.412   1_545  A
C551        S555   1.802       .  S
C552       C1281   1.398       .  A
C553       C1280   1.397       .  A
C553        C554   1.399       .  A
C553        H560   1.082       .  S
C554       C1277   1.429       .  A
C554        S556   1.806       .  S
S555        H558   1.401       .  S
S556        H557   1.407       .  S
C561        C562   1.402       .  A
C561        C566   1.416       .  A
C562        C563   1.400       .  A
C562        H571   1.084       .  S
C563        C564   1.414       .  A
C563        S567   1.796       .  S
C564        C565   1.405       .  A
C565        C566   1.402       .  A
C565        H572   1.084       .  S
C566        S568   1.804       .  S
S567        H570   1.406       .  S
S568        H569   1.407       .  S
C573        C574   1.407       .  A
C573        C578   1.407       .  A
C574        C575   1.400       .  A
C574        H583   1.082       .  S
C575        C576   1.413       .  A
C575        S579   1.806       .  S
C576        C577   1.410       .  A
C577        C578   1.398       .  A
C577        H584   1.083       .  S
C578        S580   1.803       .  S
S579        H582   1.407       .  S
S580        H581   1.406       .  S
C585        C586   1.400       .  A
C585        C590   1.411       .  A
C586        C587   1.401       .  A
C586        H595   1.084       .  S
C587        C588   1.426       .  A
C587        S591   1.805       .  S
C588        C589   1.409       .  A
C589        C590   1.401       .  A
C589        H596   1.080       .  S
C590        S592   1.800       .  S
S591        H594   1.404       .  S
S592        H593   1.405       .  S
C597        C598   1.403       .  A
C597        C602   1.413       .  A
C598        C599   1.404       .  A
C598        H607   1.082       .  S
C599        C600   1.415       .  A
C599        S603   1.801       .  S
C600        C601   1.408       .  A
C601        C602   1.400       .  A
C601        H608   1.084       .  S
C602        S604   1.802       .  S
S603        H606   1.406       .  S
S604        H605   1.404       .  S
C609        C610   1.398       .  A
C609        C614   1.420       .  A
C610        C611   1.393       .  A
C610        H619   1.074       .  S
C611        C612   1.414       .  A
C611        S615   1.800       .  S
C612        C613   1.406       .  A
C613        C614   1.406       .  A
C613        H620   1.084       .  S
C614        S616   1.801       .  S
S615        H618   1.406       .  S
S616        H617   1.407       .  S
C621        C622   1.401       .  A
C621        C626   1.409       .  A
C622        C623   1.409       .  A
C622        H631   1.082       .  S
C623        C624   1.426       .  A
C623        S627   1.810       .  S
C624        C625   1.412       .  A
C625        C626   1.391       .  A
C625        H632   1.074       .  S
C626        S628   1.806       .  S
S627        H630   1.406       .  S
S628        H629   1.405   1_556  S
C633        C634   1.403       .  A
C633        C638   1.406       .  A
C634        C635   1.410       .  A
C634        H643   1.083       .  S
C635        C636   1.424       .  A
C635        S639   1.809       .  S
C636        C637   1.416       .  A
C637        C638   1.393       .  A
C637        H644   1.071       .  S
C638        S640   1.806       .  S
S639        H642   1.407       .  S
S640        H641   1.405       .  S
C645        C646   1.410       .  A
C645        C650   1.427       .  A
C646        C647   1.395       .  A
C646        H655   1.077       .  S
C647        C648   1.406       .  A
C647        S651   1.807       .  S
C648        C649   1.397       .  A
C649        C650   1.400       .  A
C649        H656   1.084       .  S
C650        S652   1.804       .  S
S651        H654   1.400       .  S
S652        H653   1.407       .  S
C657        C658   1.405       .  A
C657        C662   1.417       .  A
C658        C659   1.394       .  A
C658        H667   1.083       .  S
C659        C660   1.412       .  A
C659        S663   1.796       .  S
C660        C661   1.406       .  A
C661        C662   1.404       .  A
C661        H668   1.084       .  S
C662        S664   1.798       .  S
S663        H666   1.405       .  S
S664        H665   1.403   1_545  S
C669        C670   1.409       .  A
C669        C674   1.425       .  A
C670        C671   1.397       .  A
C670        H679   1.081       .  S
C671        C672   1.417       .  A
C671        S675   1.802       .  S
C672        C673   1.405       .  A
C673        C674   1.400       .  A
C673        H680   1.083       .  S
C674        S676   1.808       .  S
S675        H678   1.408       .  S
S676        H677   1.401       .  S
C681        C682   1.405       .  A
C681        C686   1.417       .  A
C682        C683   1.401       .  A
C682        H691   1.082       .  S
C683        C684   1.414       .  A
C683        S687   1.810       .  S
C684        C685   1.398       .  A
C685        C686   1.396       .  A
C685        H692   1.084       .  S
C686        S688   1.797       .  S
S687        H690   1.407       .  S
S688        H689   1.401       .  S
C693        C694   1.407       .  A
C693        C698   1.415       .  A
C694        C695   1.408       .  A
C694        H703   1.083       .  S
C695        C696   1.412       .  A
C695        S699   1.806       .  S
C696        C697   1.403       .  A
C697        C698   1.402       .  A
C697        H704   1.083       .  S
C698        S700   1.806       .  S
S699        H702   1.407       .  S
S700        H701   1.406       .  S
C705        C706   1.415       .  A
C705        C710   1.424       .  A
C706        C707   1.394       .  A
C706        H715   1.072       .  S
C707        C708   1.407       .  A
C707        S711   1.805       .  S
C708        C709   1.403       .  A
C709        C710   1.410       .  A
C709        H716   1.082       .  S
C710        S712   1.810       .  S
S711        H714   1.407   1_556  S
S712        H713   1.406       .  S
C717        C718   1.402       .  A
C717        C722   1.414       .  A
C718        C719   1.399       .  A
C718        H727   1.084       .  S
C719        C720   1.411       .  A
C719        S723   1.800       .  S
C720        C721   1.403       .  A
C721        C722   1.402       .  A
C721        H728   1.084       .  S
C722        S724   1.803       .  S
S723        H726   1.405       .  S
S724        H725   1.404       .  S
C729        C730   1.545       .  S
C729        C735   1.548       .  S
C729        C733   1.542       .  S
C729       C1069   1.546       .  S
C730        H737   1.086       .  S
C730        C731   1.368       .  D
C731        C732   1.538       .  S
C731       C1057   1.493       .  S
C732        C736   1.535       .  S
C732        C734   1.535       .  S
C732        H738   1.111       .  S
C733        H739   1.086       .  S
C733        C734   1.367       .  D
C734       C1081   1.480       .  S
C735        H740   1.078       .  S
C735        C736   1.359       .  D
C736       C1048   1.482       .  S
C741        C742   1.551       .  S
C741        C747   1.541       .  S
C741        C745   1.531       .  S
C741       C1033   1.543       .  S
C742        H749   1.083       .  S
C742        C743   1.363       .  D
C743        C744   1.535       .  S
C743       C1024   1.495       .  S
C744        C748   1.554       .  S
C744        C746   1.540       .  S
C744        H750   1.104       .  S
C745        H751   1.086       .  S
C745        C746   1.362       .  D
C746       C1084   1.481       .  S
C747        H752   1.077       .  S
C747        C748   1.373       .  D
C748       C1009   1.513       .  S
O753       Ni761   1.904       .  S
O753        C763   1.277       .  A
O754      Ni1125   1.911       .  S
O754        C764   1.280       .  A
O755      Ni1125   1.915       .  S
O755        C765   1.281       .  A
O756       Ni761   1.927       .  S
O756        C766   1.282       .  A
O757       Ni762   1.911       .  S
O757        C766   1.280       .  A
O758      Ni1126   1.920       .  S
O758        C765   1.281       .  A
O759      Ni1126   1.925       .  S
O759        C764   1.283       .  A
O760       Ni762   1.935       .  S
O760        C763   1.286       .  A
Ni761      O1118   1.905   1_554  S
Ni761      O1119   1.921   1_554  S
Ni761      Ni762   2.384       .  S
Ni762      O1122   1.917   1_554  S
Ni762      O1123   1.930   1_554  S
C763       C1036   1.497       .  S
C764        C985   1.481       .  S
C765       C1072   1.482       .  S
C766        C997   1.480       .  S
C767        C768   1.549       .  S
C767        C773   1.533       .  S
C767        C771   1.543       .  S
C767        C988   1.545       .  S
C768        H775   1.080       .  S
C768        C769   1.364       .  D
C769        C770   1.541       .  S
C769        C964   1.498       .  S
C770        C774   1.543       .  S
C770        C772   1.549       .  S
C770        H776   1.108       .  S
C771        H777   1.084       .  S
C771        C772   1.372       .  D
C772        C973   1.500       .  S
C773        H778   1.087       .  S
C773        C774   1.359       .  D
C774        C949   1.486       .  S
C779        C780   1.548       .  S
C779        C785   1.535       .  S
C779        C783   1.547       .  S
C779       C1000   1.547       .  S
C780        H787   1.079       .  S
C780        C781   1.362       .  D
C781        C782   1.538       .  S
C781        C937   1.489       .  S
C782        C786   1.542       .  S
C782        C784   1.541       .  S
C782        H788   1.108       .  S
C783        H789   1.086       .  S
C783        C784   1.371       .  D
C784        C976   1.494       .  S
C785        H790   1.086       .  S
C785        C786   1.364       .  D
C786        C928   1.492       .  S
C791        C797   1.536       .  S
C791        C795   1.548       .  S
C791        C904   1.548       .  S
C792        H799   1.081       .  S
C792        C793   1.363       .  D
C793       C1060   1.494       .  S
C794        C798   1.537       .  S
C794        C796   1.542       .  S
C794        H800   1.108       .  S
C795        H801   1.085       .  S
C795        C796   1.374       .  D
C796        C916   1.492       .  S
C797        H802   1.086       .  S
C797        C798   1.367       .  D
C798       C1045   1.493       .  S
C803        C809   1.537       .  S
C803        C807   1.546       .  S
C803        C889   1.549   1_565  S
C804        H811   1.079       .  S
C804        C805   1.362       .  D
C805       C1021   1.494       .  S
C806        C810   1.544       .  S
C806        H812   1.098       .  S
C807        H813   1.085       .  S
C808        C913   1.514       .  S
C809        H814   1.086       .  S
C809        C810   1.361       .  D
C810       C1012   1.478       .  S
O815       Ni823   1.903       .  S
O816      Ni1187   1.913   1_655  S
O817      Ni1187   1.920       .  S
O818       Ni823   1.916   1_655  S
O819       Ni824   1.915   1_655  S
O819        C828   1.281       .  A
O820      Ni1188   1.921       .  S
O820        C827   1.283       .  A
O821      Ni1188   1.927   1_655  S
O821        C826   1.283       .  A
O822       Ni824   1.929       .  S
O822        C825   1.284       .  A
Ni823      O1180   1.905   1_454  S
Ni823      O1181   1.919   1_554  S
Ni824      O1184   1.917   1_554  S
Ni824      O1185   1.927   1_454  S
C825        C877   1.494       .  S
C826        C901   1.482       .  S
C827        C865   1.494       .  S
C828        C892   1.481       .  S
C829        C835   1.550   1_545  S
C829        C833   1.535       .  S
C829        C868   1.545       .  S
C830        H837   1.085       .  S
C830        C831   1.365       .  D
C831        C961   1.491       .  S
C832        C836   1.544   1_545  S
C832        H838   1.108       .  S
C833        H839   1.086       .  S
C834        C853   1.486       .  S
C835        H840   1.076       .  S
C835        C836   1.368       .  D
C836        C952   1.506       .  S
C841        C847   1.542       .  S
C841        C845   1.538       .  S
C841        C880   1.542       .  S
C842        H849   1.081       .  S
C842        C843   1.357       .  D
C843        C940   1.487       .  S
C844        C848   1.542       .  S
C844        H850   1.109       .  S
C845        H851   1.086       .  S
C847        H852   1.085       .  S
C847        C848   1.368       .  D
C848        C925   1.489       .  S
C853        C858   1.415       .  A
C854        C855   1.402       .  A
C854        H863   1.082       .  S
C855        S859   1.805       .  S
C856        C857   1.407       .  A
C857        C858   1.405       .  A
C857        H864   1.084       .  S
C858        S860   1.802       .  S
S859        H862   1.407       .  S
S860        H861   1.407       .  S
C865        C866   1.406       .  A
C866        C867   1.408       .  A
C866        H875   1.082       .  S
C867        S871   1.810       .  S
C868        C869   1.412   1_545  A
C869        C870   1.397       .  A
C869        H876   1.076       .  S
C870        S872   1.802       .  S
S871        H874   1.406       .  S
S872        H873   1.408       .  S
C877        C878   1.407       .  A
C878        C879   1.408       .  A
C878        H887   1.082       .  S
C879        C880   1.420       .  A
C879        S883   1.810       .  S
C881        C882   1.389       .  A
C881        H888   1.076       .  S
C882        S884   1.803       .  S
S883        H886   1.406       .  S
S884        H885   1.405       .  S
C889        C894   1.422   1_545  A
C890        C891   1.398       .  A
C890        H899   1.071       .  S
C891        C892   1.406       .  A
C891        S895   1.812       .  S
C893        C894   1.407       .  A
C893        H900   1.082       .  S
C894        S896   1.809       .  S
S895        H898   1.407       .  S
S896        H897   1.407       .  S
C901        C902   1.402       .  A
C902        C903   1.409       .  A
C902        H911   1.083       .  S
C903        C904   1.424       .  A
C903        S907   1.807       .  S
C905        C906   1.399       .  A
C905        H912   1.074       .  S
C906        S908   1.811       .  S
S907        H910   1.406       .  S
S908        H909   1.407       .  S
C913        C914   1.412       .  A
C914        C915   1.402       .  A
C914        H923   1.082       .  S
C915        C916   1.412       .  A
C915        S919   1.802       .  S
C917        C918   1.401       .  A
C917        H924   1.082       .  S
C918        S920   1.805       .  S
S919        H922   1.402       .  S
S920        H921   1.407       .  S
C925        C926   1.403       .  A
C925        C930   1.416       .  A
C926        C927   1.399       .  A
C926        H935   1.084       .  S
C927        C928   1.412       .  A
C927        S931   1.795       .  S
C928        C929   1.406       .  A
C929        C930   1.401       .  A
C929        H936   1.084       .  S
C930        S932   1.804       .  S
S931        H934   1.406       .  S
S932        H933   1.406       .  S
C937        C938   1.409       .  A
C937        C942   1.410       .  A
C938        C939   1.402       .  A
C938        H947   1.082       .  S
C939        C940   1.410       .  A
C939        S943   1.806       .  S
C940        C941   1.407       .  A
C941        C942   1.397       .  A
C941        H948   1.084       .  S
C942        S944   1.802       .  S
S943        H946   1.406       .  S
S944        H945   1.406       .  S
C949        C950   1.400       .  A
C949        C954   1.411       .  A
C950        C951   1.401       .  A
C950        H959   1.084       .  S
C951        C952   1.425       .  A
C951        S955   1.804       .  S
C952        C953   1.408       .  A
C953        C954   1.400       .  A
C953        H960   1.080       .  S
C954        S956   1.801       .  S
S955        H958   1.405       .  S
S956        H957   1.405       .  S
C961        C962   1.403       .  A
C961        C966   1.414       .  A
C962        C963   1.403       .  A
C962        H971   1.082       .  S
C963        C964   1.415       .  A
C963        S967   1.801       .  S
C964        C965   1.409       .  A
C965        C966   1.402       .  A
C965        H972   1.084       .  S
C966        S968   1.802       .  S
S967        H970   1.406       .  S
S968        H969   1.405       .  S
C973        C974   1.400       .  A
C973        C978   1.420       .  A
C974        C975   1.396       .  A
C974        H983   1.075       .  S
C975        C976   1.412       .  A
C975        S979   1.802       .  S
C976        C977   1.405       .  A
C977        C978   1.406       .  A
C977        H984   1.084       .  S
C978        S980   1.802       .  S
S979        H982   1.406       .  S
S980        H981   1.407       .  S
C985        C986   1.401       .  A
C985        C990   1.409       .  A
C986        C987   1.409       .  A
C986        H995   1.082       .  S
C987        C988   1.426       .  A
C987        S991   1.811       .  S
C988        C989   1.413       .  A
C989        C990   1.394       .  A
C989        H996   1.073       .  S
C990        S992   1.806       .  S
S991        H994   1.406       .  S
S992        H993   1.407       .  S
C997        C998   1.402       .  A
C997       C1002   1.408       .  A
C998        C999   1.411       .  A
C998       H1007   1.083       .  S
C999       C1000   1.426       .  A
C999       S1003   1.810       .  S
C1000      C1001   1.414       .  A
C1001      C1002   1.393       .  A
C1001      H1008   1.073       .  S
C1002      S1004   1.806       .  S
S1003      H1006   1.407       .  S
S1004      H1005   1.406       .  S
C1009      C1010   1.412       .  A
C1009      C1014   1.429       .  A
C1010      C1011   1.396       .  A
C1010      H1019   1.077       .  S
C1011      C1012   1.404       .  A
C1011      S1015   1.806       .  S
C1012      C1013   1.397       .  A
C1013      C1014   1.402       .  A
C1013      H1020   1.083       .  S
C1014      S1016   1.803       .  S
S1015      H1018   1.402       .  S
S1016      H1017   1.407       .  S
C1021      C1022   1.405       .  A
C1021      C1026   1.414       .  A
C1022      C1023   1.394       .  A
C1022      H1031   1.084       .  S
C1023      C1024   1.413       .  A
C1023      S1027   1.796       .  S
C1024      C1025   1.409       .  A
C1025      C1026   1.404       .  A
C1025      H1032   1.084       .  S
C1026      S1028   1.799       .  S
S1027      H1030   1.406       .  S
S1028      H1029   1.404       .  S
C1033      C1034   1.407       .  A
C1033      C1038   1.422       .  A
C1034      C1035   1.395       .  A
C1034      H1043   1.080       .  S
C1035      C1036   1.419       .  A
C1035      S1039   1.803       .  S
C1036      C1037   1.408       .  A
C1037      C1038   1.410       .  A
C1037      H1044   1.082       .  S
C1038      S1040   1.810       .  S
S1039      H1042   1.408       .  S
S1040      H1041   1.406       .  S
C1045      C1046   1.406       .  A
C1045      C1050   1.419       .  A
C1046      C1047   1.401       .  A
C1046      H1055   1.082       .  S
C1047      C1048   1.413       .  A
C1047      S1051   1.810       .  S
C1048      C1049   1.398       .  A
C1049      C1050   1.397       .  A
C1049      H1056   1.084       .  S
C1050      S1052   1.797       .  S
S1051      H1054   1.406       .  S
S1052      H1053   1.400       .  S
C1057      C1058   1.408       .  A
C1057      C1062   1.412       .  A
C1058      C1059   1.410       .  A
C1058      H1067   1.083       .  S
C1059      C1060   1.412       .  A
C1059      S1063   1.806       .  S
C1060      C1061   1.404       .  A
C1061      C1062   1.399       .  A
C1061      H1068   1.082       .  S
C1062      S1064   1.807       .  S
S1063      H1066   1.406       .  S
S1064      H1065   1.406       .  S
C1069      C1070   1.415       .  A
C1069      C1074   1.424       .  A
C1070      C1071   1.394       .  A
C1070      H1079   1.072       .  S
C1071      C1072   1.408       .  A
C1071      S1075   1.806       .  S
C1072      C1073   1.403       .  A
C1073      C1074   1.409       .  A
C1073      H1080   1.082       .  S
C1074      S1076   1.811       .  S
S1075      H1078   1.407       .  S
S1076      H1077   1.406       .  S
C1081      C1082   1.402       .  A
C1081      C1086   1.415       .  A
C1082      C1083   1.400       .  A
C1082      H1091   1.084       .  S
C1083      C1084   1.412       .  A
C1083      S1087   1.801       .  S
C1084      C1085   1.402       .  A
C1085      C1086   1.402       .  A
C1085      H1092   1.084       .  S
C1086      S1088   1.805       .  S
S1087      H1090   1.406       .  S
S1088      H1089   1.402       .  S
C1093      C1094   1.543       .  S
C1093      C1099   1.543       .  S
C1093      C1097   1.547       .  S
C1093      C1433   1.546       .  S
C1094      H1101   1.086       .  S
C1094      C1095   1.369       .  D
C1095      C1096   1.539       .  S
C1095      C1421   1.497       .  S
C1096      C1100   1.534       .  S
C1096      C1098   1.535       .  S
C1096      H1102   1.110       .  S
C1097      H1103   1.085       .  S
C1097      C1098   1.371       .  D
C1098      C1445   1.483       .  S
C1099      H1104   1.082       .  S
C1099      C1100   1.356       .  D
C1100      C1412   1.478       .  S
C1105      C1106   1.549       .  S
C1105      C1111   1.540       .  S
C1105      C1109   1.531       .  S
C1105      C1397   1.543       .  S
C1106      H1113   1.084       .  S
C1106      C1107   1.362       .  D
C1107      C1108   1.537       .  S
C1107      C1388   1.493       .  S
C1108      C1112   1.553       .  S
C1108      C1110   1.545       .  S
C1108      H1114   1.104       .  S
C1109      H1115   1.086       .  S
C1109      C1110   1.361       .  D
C1110      C1448   1.486       .  S
C1111      H1116   1.076       .  S
C1111      C1112   1.373       .  D
C1112      C1373   1.510       .  S
O1117     Ni1125   1.912       .  S
O1117      C1127   1.279       .  A
O1118      C1128   1.278       .  A
O1119      C1129   1.283       .  A
O1120     Ni1125   1.918       .  S
O1120      C1130   1.281       .  A
O1121     Ni1126   1.916       .  S
O1121      C1130   1.281       .  A
O1122      C1129   1.280       .  A
O1123      C1128   1.284       .  A
O1124     Ni1126   1.924       .  S
O1124      C1127   1.283       .  A
Ni1125    Ni1126   2.383       .  S
C1127      C1400   1.495       .  S
C1128      C1349   1.485       .  S
C1129      C1436   1.480       .  S
C1130      C1361   1.486       .  S
C1131      C1132   1.551       .  S
C1131      C1137   1.535       .  S
C1131      C1135   1.540       .  S
C1131      C1352   1.546       .  S
C1132      H1139   1.077       .  S
C1132      C1133   1.367       .  D
C1133      C1134   1.540       .  S
C1133      C1328   1.504       .  S
C1134      C1138   1.542       .  S
C1134      C1136   1.549       .  S
C1134      H1140   1.106       .  S
C1135      H1141   1.084       .  S
C1135      C1136   1.371       .  D
C1136      C1337   1.499       .  S
C1137      H1142   1.086       .  S
C1137      C1138   1.359       .  D
C1138      C1313   1.484       .  S
C1143      C1144   1.545       .  S
C1143      C1149   1.543       .  S
C1143      C1147   1.542       .  S
C1143      C1364   1.545       .  S
C1144      H1151   1.080       .  S
C1144      C1145   1.357       .  D
C1145      C1146   1.535       .  S
C1145      C1301   1.483       .  S
C1146      C1150   1.545       .  S
C1146      C1148   1.539       .  S
C1146      H1152   1.108       .  S
C1147      H1153   1.086       .  S
C1147      C1148   1.368       .  D
C1148      C1340   1.491       .  S
C1149      H1154   1.085       .  S
C1149      C1150   1.372       .  D
C1150      C1292   1.499       .  S
C1155      C1161   1.540       .  S
C1155      C1159   1.538       .  S
C1155      C1268   1.543       .  S
C1156      H1163   1.079       .  S
C1156      C1157   1.362       .  D
C1157      C1424   1.493       .  S
C1158      C1162   1.536       .  S
C1158      C1160   1.542       .  S
C1158      H1164   1.107       .  S
C1159      H1165   1.085       .  S
C1159      C1160   1.367       .  D
C1160      C1280   1.490       .  S
C1161      H1166   1.082       .  S
C1161      C1162   1.369       .  D
C1162      C1409   1.493       .  S
C1167      C1173   1.530   1_545  S
C1167      C1171   1.547       .  S
C1167      C1253   1.548       .  S
C1168      H1175   1.080       .  S
C1168      C1169   1.363       .  D
C1169      C1385   1.496       .  S
C1170      C1174   1.544       .  S
C1170      H1176   1.094       .  S
C1171      H1177   1.084       .  S
C1172      C1277   1.512       .  S
C1173      H1178   1.087       .  S
C1173      C1174   1.358       .  D
C1174      C1376   1.473       .  S
O1179     Ni1187   1.912       .  S
O1182     Ni1187   1.922   1_655  S
O1183     Ni1188   1.918   1_655  S
O1183      C1192   1.281       .  A
O1184      C1191   1.280       .  A
O1185      C1190   1.285       .  A
O1186     Ni1188   1.926       .  S
O1186      C1189   1.282       .  A
C1189      C1241   1.480       .  S
C1190      C1265   1.497       .  S
C1191      C1229   1.482       .  S
C1192      C1256   1.491       .  S
C1193      C1199   1.550       .  S
C1193      C1197   1.539       .  S
C1193      C1232   1.550       .  S
C1194      H1201   1.086       .  S
C1194      C1195   1.364       .  D
C1195      C1325   1.491       .  S
C1196      C1200   1.542   1_545  S
C1196      H1202   1.108       .  S
C1197      H1203   1.086       .  S
C1198      C1217   1.481       .  S
C1199      H1204   1.074       .  S
C1199      C1200   1.365       .  D
C1200      C1316   1.506       .  S
C1205      C1211   1.536       .  S
C1205      C1209   1.545       .  S
C1205      C1244   1.547       .  S
C1206      H1213   1.081       .  S
C1206      C1207   1.360       .  D
C1207      C1304   1.489       .  S
C1208      C1212   1.541       .  S
C1208      H1214   1.110       .  S
C1209      H1215   1.085       .  S
C1211      H1216   1.086       .  S
C1211      C1212   1.365       .  D
C1212      C1289   1.487       .  S
C1217      C1222   1.415       .  A
C1218      C1219   1.398       .  A
C1218      H1227   1.083       .  S
C1219      S1223   1.797       .  S
C1220      C1221   1.403       .  A
C1221      C1222   1.403       .  A
C1221      H1228   1.084       .  S
C1222      S1224   1.806       .  S
S1223      H1226   1.406       .  S
S1224      H1225   1.401       .  S
C1229      C1230   1.402       .  A
C1230      C1231   1.409       .  A
C1230      H1239   1.083       .  S
C1231      S1235   1.810       .  S
C1232      C1233   1.413       .  A
C1233      C1234   1.396       .  A
C1233      H1240   1.072       .  S
C1234      S1236   1.801       .  S
S1235      H1238   1.406       .  S
S1236      H1237   1.407       .  S
C1241      C1242   1.403       .  A
C1242      C1243   1.411       .  A
C1242      H1251   1.082       .  S
C1243      C1244   1.425       .  A
C1243      S1247   1.809       .  S
C1245      C1246   1.391       .  A
C1245      H1252   1.075       .  S
C1246      S1248   1.805       .  S
S1247      H1250   1.406       .  S
S1248      H1249   1.406       .  S
C1253      C1258   1.424   1_545  A
C1254      C1255   1.397       .  A
C1254      H1263   1.076       .  S
C1255      C1256   1.414       .  A
C1255      S1259   1.803       .  S
C1257      C1258   1.408       .  A
C1257      H1264   1.082       .  S
C1258      S1260   1.810       .  S
S1259      H1262   1.408       .  S
S1260      H1261   1.406       .  S
C1265      C1266   1.405       .  A
C1266      C1267   1.402       .  A
C1266      H1275   1.083       .  S
C1267      C1268   1.425       .  A
C1267      S1271   1.804       .  S
C1269      C1270   1.398       .  A
C1269      H1276   1.070       .  S
C1270      S1272   1.812       .  S
S1271      H1274   1.401       .  S
S1272      H1273   1.407       .  S
C1277      C1278   1.412       .  A
C1278      C1279   1.401       .  A
C1278      H1287   1.083       .  S
C1279      C1280   1.414       .  A
C1279      S1283   1.804       .  S
C1281      C1282   1.400       .  A
C1281      H1288   1.082       .  S
C1282      S1284   1.808       .  S
S1283      H1286   1.403       .  S
S1284      H1285   1.407       .  S
C1289      C1290   1.400       .  A
C1289      C1294   1.415       .  A
C1290      C1291   1.401       .  A
C1290      H1299   1.084       .  S
C1291      C1292   1.417       .  A
C1291      S1295   1.794       .  S
C1292      C1293   1.406       .  A
C1293      C1294   1.401       .  A
C1293      H1300   1.083       .  S
C1294      S1296   1.804       .  S
S1295      H1298   1.406       .  S
S1296      H1297   1.406       .  S
C1301      C1302   1.407       .  A
C1301      C1306   1.407       .  A
C1302      C1303   1.400       .  A
C1302      H1311   1.083       .  S
C1303      C1304   1.411       .  A
C1303      S1307   1.806       .  S
C1304      C1305   1.410       .  A
C1305      C1306   1.398       .  A
C1305      H1312   1.083       .  S
C1306      S1308   1.803       .  S
S1307      H1310   1.406       .  S
S1308      H1309   1.406       .  S
C1313      C1314   1.398       .  A
C1313      C1318   1.412       .  A
C1314      C1315   1.400       .  A
C1314      H1323   1.084       .  S
C1315      C1316   1.425       .  A
C1315      S1319   1.805       .  S
C1316      C1317   1.408       .  A
C1317      C1318   1.401       .  A
C1317      H1324   1.080       .  S
C1318      S1320   1.801       .  S
S1319      H1322   1.404       .  S
S1320      H1321   1.405       .  S
C1325      C1326   1.403       .  A
C1325      C1330   1.412       .  A
C1326      C1327   1.406       .  A
C1326      H1335   1.083       .  S
C1327      C1328   1.418       .  A
C1327      S1331   1.800       .  S
C1328      C1329   1.409       .  A
C1329      C1330   1.400       .  A
C1329      H1336   1.083       .  S
C1330      S1332   1.802       .  S
S1331      H1334   1.407       .  S
S1332      H1333   1.404       .  S
C1337      C1338   1.400       .  A
C1337      C1342   1.420       .  A
C1338      C1339   1.395       .  A
C1338      H1347   1.075       .  S
C1339      C1340   1.411       .  A
C1339      S1343   1.800       .  S
C1340      C1341   1.405       .  A
C1341      C1342   1.404       .  A
C1341      H1348   1.084       .  S
C1342      S1344   1.802       .  S
S1343      H1346   1.405       .  S
S1344      H1345   1.407       .  S
C1349      C1350   1.402       .  A
C1349      C1354   1.412       .  A
C1350      C1351   1.409       .  A
C1350      H1359   1.082       .  S
C1351      C1352   1.426       .  A
C1351      S1355   1.811       .  S
C1352      C1353   1.412       .  A
C1353      C1354   1.394       .  A
C1353      H1360   1.072       .  S
C1354      S1356   1.806       .  S
S1355      H1358   1.406       .  S
S1356      H1357   1.408   1_556  S
C1361      C1362   1.406       .  A
C1361      C1366   1.410       .  A
C1362      C1363   1.409       .  A
C1362      H1371   1.082       .  S
C1363      C1364   1.421       .  A
C1363      S1367   1.810       .  S
C1364      C1365   1.414       .  A
C1365      C1366   1.393       .  A
C1365      H1372   1.075       .  S
C1366      S1368   1.805       .  S
S1367      H1370   1.406       .  S
S1368      H1369   1.408       .  S
C1373      C1374   1.412       .  A
C1373      C1378   1.427       .  A
C1374      C1375   1.394       .  A
C1374      H1383   1.076       .  S
C1375      C1376   1.404       .  A
C1375      S1379   1.807       .  S
C1376      C1377   1.396       .  A
C1377      C1378   1.399       .  A
C1377      H1384   1.084       .  S
C1378      S1380   1.803       .  S
S1379      H1382   1.401       .  S
S1380      H1381   1.407       .  S
C1385      C1386   1.405       .  A
C1385      C1390   1.415       .  A
C1386      C1387   1.396       .  A
C1386      H1395   1.084       .  S
C1387      C1388   1.413       .  A
C1387      S1391   1.795       .  S
C1388      C1389   1.407       .  A
C1389      C1390   1.403       .  A
C1389      H1396   1.084       .  S
C1390      S1392   1.799       .  S
S1391      H1394   1.406       .  S
S1392      H1393   1.404       .  S
C1397      C1398   1.410       .  A
C1397      C1402   1.426       .  A
C1398      C1399   1.396       .  A
C1398      H1407   1.080       .  S
C1399      C1400   1.417       .  A
C1399      S1403   1.802       .  S
C1400      C1401   1.407       .  A
C1401      C1402   1.404       .  A
C1401      H1408   1.083       .  S
C1402      S1404   1.808       .  S
S1403      H1406   1.408       .  S
S1404      H1405   1.401       .  S
C1409      C1410   1.406       .  A
C1409      C1414   1.420       .  A
C1410      C1411   1.399       .  A
C1410      H1419   1.082       .  S
C1411      C1412   1.412       .  A
C1411      S1415   1.810       .  S
C1412      C1413   1.397       .  A
C1413      C1414   1.397       .  A
C1413      H1420   1.084       .  S
C1414      S1416   1.796       .  S
S1415      H1418   1.406       .  S
S1416      H1417   1.400       .  S
C1421      C1422   1.409       .  A
C1421      C1426   1.415       .  A
C1422      C1423   1.409       .  A
C1422      H1431   1.082       .  S
C1423      C1424   1.411       .  A
C1423      S1427   1.806       .  S
C1424      C1425   1.404       .  A
C1425      C1426   1.401       .  A
C1425      H1432   1.082       .  S
C1426      S1428   1.807       .  S
S1427      H1430   1.406       .  S
S1428      H1429   1.406       .  S
C1433      C1434   1.416       .  A
C1433      C1438   1.422       .  A
C1434      C1435   1.394       .  A
C1434      H1443   1.075       .  S
C1435      C1436   1.406       .  A
C1435      S1439   1.806       .  S
C1436      C1437   1.404       .  A
C1437      C1438   1.410       .  A
C1437      H1444   1.083       .  S
C1438      S1440   1.809       .  S
S1439      H1442   1.407   1_556  S
S1440      H1441   1.407       .  S
C1445      C1446   1.402       .  A
C1445      C1450   1.414       .  A
C1446      C1447   1.400       .  A
C1446      H1455   1.084       .  S
C1447      C1448   1.413       .  A
C1447      S1451   1.799       .  S
C1448      C1449   1.404       .  A
C1449      C1450   1.404       .  A
C1449      H1456   1.084       .  S
C1450      S1452   1.803       .  S
S1451      H1454   1.406       .  S
S1452      H1453   1.404       .  S
