geometry optimzed in LAMMPS
_audit_creation_date              2020-11-30 
_audit_creation_method            'lammps2cif' 
_symmetry_space_group_name_H-M    'P1' 
_symmetry_Int_Tables_number       1 
_symmetry_cell_setting            triclinic 
loop_ 
_symmetry_equiv_pos_as_xyz 
  x,y,z 
_cell_length_a                    32.31743221 
_cell_length_b                    32.120299705936226 
_cell_length_c                    62.12547560580368 
_cell_angle_alpha                 89.59243531577198 
_cell_angle_beta                  89.93277982716253 
_cell_angle_gamma                 120.08934623197548 
loop_ 
_atom_site_label 
_atom_site_type_symbol 
_atom_site_fract_x 
_atom_site_fract_y 
_atom_site_fract_z 
_atom_site_charge 
O1          O  0.41384434  0.25816843  0.86228692    -0.78700
C2          C  0.39008866  0.10967492  0.86720603     0.82300
O3          O  0.40936881  0.20276359  0.78950744    -0.79900
O4          O  0.27516844  0.05290350  0.81863833    -0.81300
O5          O  0.24469322  0.15740167  0.86176972    -0.81100
O6          O  0.34673581  0.26120452  0.86010943    -0.79800
Zn7        Zn  0.40256220  0.20070972  0.84431386     1.55700
O8          O  0.24461286  0.08818808  0.86350439    -0.81200
Cd9        Cd  0.30272379  0.20106301  0.84261332     1.59700
Cd10       Cd  0.33935658  0.16866277  0.80064005     1.59600
O11         O  0.27729011  0.22213516  0.81697924    -0.81100
O12         O  0.33773413  0.16808269  0.83293096    -1.91700
Cd13       Cd  0.30186618  0.10032986  0.84396492     1.59900
O14         O  0.30505170  0.20366728  0.78789369    -0.81100
O15         O  0.34668097  0.08428213  0.86138570    -0.79800
C16         C  0.44914488  0.22385388  0.79943022     0.82800
C17         C  0.38927990  0.27811366  0.86684382     0.82400
O18         O  0.41463084  0.15434183  0.86225718    -0.78700
C19         C  0.22653303  0.11420463  0.86844628     0.83200
O20         O  0.45109548  0.22580694  0.81992030    -0.78800
C21         C  0.28145324  0.22121410  0.79665863     0.83400
C22         C  0.28058906  0.05791597  0.79829565     0.83700
O23         O  0.30493267  0.09889605  0.78914083    -0.81200
C24         C  0.17073232  0.33768221  0.71436115     0.86200
C25         C  0.19565943  0.38796219  0.72499683    -0.54000
C26         C  0.19632052  0.38645881  0.74689800     0.09200
C27         C  0.17250429  0.33546095  0.75646282     0.20100
C28         C  0.19754759  0.31335350  0.72364392    -0.54700
C29         C  0.19878054  0.31235689  0.74557989     0.09300
C30         C  0.12101781  0.31197176  0.72510353    -0.54300
C31         C  0.12167332  0.30937354  0.74704664     0.09800
H32         H  0.21166000  0.42237736  0.71681667     0.14400
H33         H  0.17350198  0.33472326  0.77433056     0.00100
H34         H  0.21337954  0.29736037  0.71362786     0.14700
H35         H  0.08822278  0.29808685  0.71595641     0.14400
C36         C  0.00060808  0.99783115  0.95208914     0.86200
C37         C  0.47637161  0.02356250  0.94149285    -0.54000
C38         C  0.47961281  0.02623126  0.91957133     0.09200
C39         C  0.00578008  0.00187133  0.90992901     0.20100
C40         C  0.47662575  0.44798054  0.94087418    -0.54700
C41         C  0.47965087  0.45038448  0.91892464     0.09300
C42         C  0.05196755  0.02314854  0.94297082    -0.54300
C43         C  0.05473765  0.02565300  0.92102879     0.09800
H44         H  0.45695165  0.03720446  0.95051402     0.14400
H45         H  0.00771130  0.00353135  0.89205855     0.00100
H46         H  0.45920059  0.41322467  0.94878634     0.14700
H47         H  0.08354888  0.03729345  0.95301262     0.14400
O48         O  0.40334596  0.48606948  0.52899428    -0.78700
C49         C  0.05200213  0.10914016  0.53273344     0.82300
O50         O  0.45475628  0.02712964  0.45630051    -0.79900
O51         O  0.10720815  0.05300057  0.48253352    -0.81300
O52         O  0.00888484  0.41981038  0.53038789    -0.81100
O53         O  0.40434675  0.41755184  0.53030364    -0.79800
Zn54       Zn  0.46183824  0.03099354  0.51080818     1.55700
O55         O  0.07795469  0.48878452  0.52801471    -0.81200
Cd56       Cd  0.46254627  0.43109908  0.51178304     1.59700
Cd57       Cd  0.49123222  0.49431265  0.46762453     1.59600
O58         O  0.43719500  0.38074078  0.48763196    -0.81100
O59         O  0.49395664  0.49768722  0.49982561    -1.91700
Cd60       Cd  0.06224688  0.03185161  0.50881570     1.59900
O61         O  0.45514269  0.42329977  0.45716717    -0.81100
O62         O  0.07799310  0.09247825  0.52603019    -0.79800
C63         C  0.43788558  0.05052565  0.46569704     0.82800
C64         C  0.38496884  0.44229231  0.53514687     0.82400
O65         O  0.00736619  0.08841242  0.52866106    -0.78700
C66         C  0.05306646  0.44572544  0.53493536     0.83200
O67         O  0.43932238  0.05571902  0.48604804    -0.78800
C68         C  0.43647336  0.38302785  0.46718955     0.83400
C69         C  0.10094375  0.05057480  0.46225267     0.83700
O70         O  0.05938931  0.03031151  0.45389137    -0.81200
C71         C  0.33040935  0.16428596  0.38156068     0.86200
C72         C  0.27916506  0.13526757  0.39074841    -0.54000
C73         C  0.27646734  0.13121521  0.41265133     0.09200
C74         C  0.32545092  0.15820442  0.42365967     0.20100
C75         C  0.35128010  0.21345826  0.39313132    -0.54700
C76         C  0.34746446  0.21022611  0.41516113     0.09300
C77         C  0.35861319  0.14235883  0.39161563    -0.54300
C78         C  0.35585748  0.13881958  0.41341735     0.09800
H79         H  0.24746116  0.12047328  0.38074364     0.14400
H80         H  0.32302658  0.15522577  0.44145592     0.00100
H81         H  0.36879239  0.24825870  0.38529839     0.14700
H82         H  0.38007066  0.13152683  0.38232837     0.14400
C83         C  0.16133667  0.32883643  0.61862506     0.86200
C84         C  0.13759666  0.27859442  0.60794971    -0.54000
C85         C  0.13567521  0.27963539  0.58600955     0.09200
C86         C  0.15999794  0.33094179  0.57653218     0.20100
C87         C  0.21113710  0.35527075  0.60811470    -0.54700
C88         C  0.21059494  0.35708617  0.58624462     0.09300
C89         C  0.13399732  0.35251185  0.60917164    -0.54300
C90         C  0.13348284  0.35393341  0.58722068     0.09800
H91         H  0.12545948  0.24487356  0.61624731     0.14400
H92         H  0.15974601  0.33223562  0.55866177     0.00100
H93         H  0.24414147  0.37107670  0.61725323     0.14700
H94         H  0.11882082  0.36911446  0.61915384     0.14400
O95         O  0.17939016  0.25294046  0.19571047    -0.78700
C96         C  0.05734814  0.27565153  0.20167432     0.82300
O97         O  0.13427890  0.25831304  0.12322315    -0.79900
O98         O  0.10613685  0.38444258  0.15054743    -0.81300
O99         O  0.24605255  0.42350097  0.19482642    -0.81100
O100        O  0.24939386  0.32120636  0.19471450    -0.79800
Zn101      Zn  0.13425732  0.26484429  0.17783562     1.55700
O102        O  0.17872427  0.42610194  0.19379464    -0.81200
Cd103      Cd  0.23365897  0.36548632  0.17643873     1.59700
Cd104      Cd  0.16606440  0.32844100  0.13408987     1.59600
O105        O  0.28109117  0.39219907  0.15086338    -0.81100
O106        O  0.16610122  0.33004543  0.16633655    -1.91700
Cd107      Cd  0.13267043  0.36453407  0.17659645     1.59900
O108        O  0.23480783  0.36433546  0.12181473    -0.81100
O109        O  0.07515978  0.31977313  0.19628142    -0.79800
C110        C  0.11442866  0.21843752  0.13351135     0.82800
C111        C  0.22341540  0.27749818  0.20068819     0.82400
O112        O  0.07631412  0.25106433  0.19573510    -0.78700
C113        C  0.22210829  0.44366619  0.19974405     0.83200
O114        O  0.11216653  0.21682282  0.15396382    -0.78800
C115        C  0.27573889  0.38774994  0.13055506     0.83400
C116        C  0.10858852  0.38116362  0.13018274     0.83700
O117        O  0.12995056  0.36116991  0.12154592    -0.81200
C118        C  0.00018122  0.99988538  0.04831689     0.86200
C119        C  0.01997285  0.46902559  0.05785669    -0.54000
C120        C  0.01780480  0.46518049  0.07979080     0.09200
C121        C  0.99785821  0.99439316  0.09043108     0.20100
C122        C  0.45005979  0.48010035  0.05814916    -0.54700
C123        C  0.44869169  0.47704486  0.07998805     0.09300
C124        C  0.02990997  0.04896416  0.05978782    -0.54300
C125        C  0.02982155  0.04592171  0.08179905     0.09800
H126        H  0.03610981  0.45298654  0.04808588     0.14400
H127        H  0.99695911  0.99185486  0.10821847     0.00100
H128        H  0.41822769  0.46991689  0.04866828     0.14700
H129        H  0.04872996  0.08367664  0.05194501     0.14400
C130        C  0.33121291  0.16204223  0.28539475     0.86200
C131        C  0.38210428  0.18664781  0.27578956    -0.54000
C132        C  0.38415544  0.19031513  0.25384893     0.09200
C133        C  0.33452996  0.16687404  0.24328634     0.20100
C134        C  0.30670897  0.18823301  0.27543638    -0.54700
C135        C  0.30953304  0.19199997  0.25347516     0.09300
C136        C  0.30549222  0.11249048  0.27418975    -0.54300
C137        C  0.30721013  0.11523440  0.25229858     0.09800
H138        H  0.41358864  0.19873695  0.28571358     0.14400
H139        H  0.33588725  0.16878539  0.22542007     0.00100
H140        H  0.28741727  0.20102386  0.28506890     0.14700
H141        H  0.28642963  0.07772107  0.28204917     0.14400
C142        C  0.37372515  0.40561179  0.09178881    -0.20600
C143        C  0.40319608  0.45574954  0.09212967    -0.07100
C144        C  0.38829733  0.48380460  0.10364285     0.13700
C145        C  0.34673995  0.46059490  0.11633415    -0.20600
C146        C  0.31850689  0.41032294  0.11673913    -0.07100
C147        C  0.33152587  0.38246389  0.10402122     0.13700
C148        C  0.30175294  0.32835002  0.10384517    -0.24000
H149        H  0.38401973  0.38447283  0.08200213     0.15000
H150        H  0.33566728  0.48189069  0.12558280     0.15100
C151        C  0.41346806  0.53782117  0.10196497    -0.23900
H152        H  0.31793147  0.31219365  0.09347315     0.05300
H153        H  0.26552248  0.31710380  0.09758199     0.08500
H154        H  0.29861537  0.31393593  0.12043715     0.08500
H155        H  0.44485705  0.05274728  0.09099451     0.08500
H156        H  0.42505170  0.55373223  0.11817094     0.08500
H157        H  0.38831652  0.54880737  0.09550186     0.05300
C158        C  0.11832051  0.17108462  0.10300403    -0.20600
C159        C  0.09397572  0.17291649  0.12136962    -0.07100
C160        C  0.05113937  0.13125386  0.12780434     0.13700
C161        C  0.03276667  0.08992022  0.11510578    -0.20600
C162        C  0.05556509  0.08869992  0.09605921    -0.07100
C163        C  0.10076612  0.12903129  0.09077821     0.13700
C164        C  0.13306824  0.12837567  0.07340082    -0.24000
H165        H  0.15229834  0.20224960  0.09857553     0.15000
H166        H  0.99957075  0.05872938  0.11997465     0.15100
C167        C  0.02323567  0.13046034  0.14745819    -0.23900
H168        H  0.16915402  0.14069583  0.08016301     0.05300
H169        H  0.13636002  0.15309105  0.06007476     0.08500
H170        H  0.12066054  0.09194210  0.06698000     0.08500
H171        H  0.01453440  0.15973547  0.14628351     0.08500
H172        H  0.04432650  0.13495202  0.16221705     0.08500
H173        H  0.98904292  0.09587712  0.14917546     0.05300
C174        C  0.03797192  0.38816951  0.12085627    -0.20600
C175        C  0.08537427  0.40094795  0.11628638    -0.07100
C176        C  0.10974518  0.43306967  0.09906243     0.13700
C177        C  0.08655812  0.45300799  0.08738609    -0.20600
C178        C  0.03927619  0.44086631  0.09216663    -0.07100
C179        C  0.01421316  0.40680616  0.10873847     0.13700
C180        C  0.46175499  0.38736774  0.11291942    -0.24000
H181        H  0.01913203  0.36266087  0.13377984     0.15000
H182        H  0.10598476  0.97912506  0.07469540     0.15100
C183        C  0.16069406  0.44781568  0.09344411    -0.23900
H184        H  0.44748095  0.35836251  0.12533490     0.05300
H185        H  0.44172166  0.37174745  0.09786943     0.08500
H186        H  0.45498357  0.41581438  0.11880482     0.08500
H187        H  0.16277726  0.41599896  0.08813759     0.08500
H188        H  0.18389510  0.46392647  0.10769560     0.08500
H189        H  0.17512963  0.97512747  0.08023387     0.05300
C190        C  0.25927523  0.18939302  0.22275358    -0.20600
C191        C  0.28763873  0.21490170  0.24037532    -0.07100
C192        C  0.29617411  0.26198874  0.24430583     0.13700
C193        C  0.27499985  0.28141608  0.23092251    -0.20600
C194        C  0.24500854  0.25498969  0.21393383    -0.07100
C195        C  0.23736169  0.20847921  0.20965058     0.13700
C196        C  0.20766557  0.17948128  0.19084655    -0.24000
H197        H  0.25410074  0.15415950  0.21918418     0.15000
H198        H  0.28143825  0.31740522  0.23389860     0.15100
C199        C  0.32918614  0.29312022  0.26181240    -0.23900
H200        H  0.20782624  0.14514273  0.18922121     0.05300
H201        H  0.22215333  0.20041590  0.17568152     0.08500
H202        H  0.16995061  0.17033328  0.19305195     0.08500
H203        H  0.36438866  0.29553404  0.26005732     0.08500
H204        H  0.31377924  0.27838726  0.27787774     0.08500
H205        H  0.33519388  0.33031063  0.26102325     0.05300
C206        C  0.31428802  0.05798414  0.22843102    -0.20600
C207        C  0.28469423  0.07187735  0.23866140    -0.07100
C208        C  0.23465673  0.04356031  0.23640063     0.13700
C209        C  0.21551818  0.00254300  0.22335601    -0.20600
C210        C  0.24508096  0.48839953  0.21288745    -0.07100
C211        C  0.29552048  0.51688432  0.21554938     0.13700
C212        C  0.33042384  0.50528921  0.20480577    -0.24000
H213        H  0.35240288  0.07863776  0.23112558     0.15000
H214        H  0.17704418  0.98092842  0.22172086     0.15100
C215        C  0.20132434  0.05598424  0.24800443    -0.23900
H216        H  0.36815509  0.53320831  0.20790193     0.05300
H217        H  0.32519600  0.50335675  0.18710149     0.08500
H218        H  0.32553903  0.47070469  0.21113984     0.08500
H219        H  0.20930320  0.09267363  0.24345594     0.08500
H220        H  0.20559681  0.05442118  0.26565586     0.08500
H221        H  0.16330379  0.03054487  0.24408537     0.05300
C222        C  0.43312483  0.18759433  0.22356538    -0.20600
C223        C  0.42970023  0.21291649  0.24115341    -0.07100
C224        C  0.46852570  0.25961091  0.24541779     0.13700
C225        C  0.00961799  0.27882390  0.23229576    -0.20600
C226        C  0.01345094  0.25266779  0.21518282    -0.07100
C227        C  0.47453454  0.20637424  0.21073302     0.13700
C228        C  0.47551214  0.17726011  0.19199539    -0.24000
H229        H  0.40312756  0.15282257  0.21972085     0.15000
H230        H  0.03918546  0.31461181  0.23546496     0.15100
C231        C  0.46637409  0.29075442  0.26290565    -0.23900
H232        H  0.44100414  0.14311100  0.19022622     0.05300
H233        H  0.50377416  0.16772204  0.19440983     0.08500
H234        H  0.48251362  0.19827699  0.17682081     0.08500
H235        H  0.46602222  0.27558232  0.27899334     0.08500
H236        H  0.43406304  0.29391596  0.26086114     0.08500
H237        H  0.49789455  0.32768740  0.26237942     0.05300
C238        C  0.35013333  0.20634621  0.34448271    -0.20600
C239        C  0.33121422  0.16342305  0.35666581    -0.07100
C240        C  0.31301146  0.11947853  0.34510089     0.13700
C241        C  0.31370495  0.12025868  0.32245892    -0.20600
C242        C  0.33184603  0.16313334  0.31027821    -0.07100
C243        C  0.35160315  0.20708505  0.32187092     0.13700
C244        C  0.37536467  0.25650176  0.31145973    -0.24000
H245        H  0.36467484  0.24066240  0.35220214     0.15000
H246        H  0.30059271  0.08630477  0.31461280     0.15100
C247        C  0.29257022  0.07063205  0.35604426    -0.23900
H248        H  0.35512830  0.27486565  0.31568438     0.05300
H249        H  0.37828814  0.25678871  0.29381018     0.08500
H250        H  0.41238615  0.27816260  0.31764428     0.08500
H251        H  0.26141663  0.06267510  0.36628196     0.08500
H252        H  0.31998036  0.06818085  0.36570455     0.08500
H253        H  0.27956845  0.04095296  0.34422760     0.05300
C254        C  0.17582185  0.05367738  0.45205974    -0.20600
C255        C  0.14376238  0.07012840  0.44833766    -0.07100
C256        C  0.15433307  0.10551852  0.43230835     0.13700
C257        C  0.19761588  0.12439392  0.42072148    -0.20600
C258        C  0.23017741  0.10828866  0.42466987    -0.07100
C259        C  0.21827804  0.07148616  0.44018669     0.13700
C260        C  0.24825634  0.04838500  0.44345952    -0.24000
H261        H  0.16704793  0.02592251  0.46416116     0.15000
H262        H  0.20654054  0.15250866  0.40880982     0.15100
C263        C  0.12106681  0.12467689  0.42801819    -0.23900
H264        H  0.23227984  0.01866710  0.45552137     0.05300
H265        H  0.28417546  0.07497665  0.44934218     0.08500
H266        H  0.25049576  0.03272949  0.42798015     0.08500
H267        H  0.11580950  0.14021471  0.44297930     0.08500
H268        H  0.08599096  0.09517476  0.42243938     0.08500
H269        H  0.13550901  0.15325166  0.41540229     0.05300
C270        C  0.38824147  0.25371525  0.44874530    -0.20600
C271        C  0.36518750  0.25313939  0.42948841    -0.07100
C272        C  0.36168394  0.29424533  0.42404062     0.13700
C273        C  0.38667431  0.33630887  0.43622253    -0.20600
C274        C  0.41211311  0.33764367  0.45475255    -0.07100
C275        C  0.41205483  0.29528226  0.46131910     0.13700
C276        C  0.43854475  0.29380147  0.48103386    -0.24000
H277        H  0.38875251  0.22178203  0.45391955     0.15000
H278        H  0.38454275  0.36784678  0.43168095     0.15100
C279        C  0.32926328  0.29431280  0.40661097    -0.23900
H280        H  0.43754410  0.25885115  0.48271983     0.05300
H281        H  0.42195715  0.29856663  0.49575836     0.08500
H282        H  0.97664047  0.32257591  0.47994879     0.08500
H283        H  0.30487297  0.25802072  0.40017909     0.08500
H284        H  0.35103022  0.31878852  0.39329237     0.08500
H285        H  0.30594941  0.30732207  0.41333110     0.05300
C286        C  0.44232101  0.12244498  0.44884415    -0.20600
C287        C  0.41646703  0.07259374  0.45239915    -0.07100
C288        C  0.37279120  0.04420408  0.44168700     0.13700
C289        C  0.35494648  0.06676131  0.42829710    -0.20600
C290        C  0.37911666  0.11687611  0.42584987    -0.07100
C291        C  0.42486750  0.14471867  0.43496181     0.13700
C292        C  0.45708275  0.19646595  0.42842176    -0.24000
H293        H  0.47718568  0.14355614  0.45616253     0.15000
H294        H  0.32220045  0.04519382  0.41955686     0.15100
C295        C  0.34475939  0.99033299  0.44461478    -0.23900
H296        H  0.49170258  0.21290739  0.43709052     0.05300
H297        H  0.44007793  0.21810480  0.43164285     0.08500
H298        H  0.46464069  0.19841587  0.41089425     0.08500
H299        H  0.33569744  0.98126716  0.46190063     0.08500
H300        H  0.36650312  0.47435758  0.43895422     0.08500
H301        H  0.31107784  0.47383883  0.43533047     0.05300
C302        C  0.26720467  0.35005901  0.56192678    -0.20600
C303        C  0.25510553  0.37989540  0.57322472    -0.07100
C304        C  0.28603800  0.43020378  0.57244271     0.13700
C305        C  0.32776180  0.44945618  0.55974961    -0.20600
C306        C  0.33998467  0.41959243  0.54816938    -0.07100
C307        C  0.30876491  0.36889651  0.54925631     0.13700
C308        C  0.31783661  0.33389897  0.53691894    -0.24000
H309        H  0.24464300  0.31153383  0.56353801     0.15000
H310        H  0.35141652  0.48810406  0.55921313     0.15100
C311        C  0.27561285  0.46361689  0.58521668    -0.23900
H312        H  0.28789216  0.29627760  0.53873243     0.05300
H313        H  0.35051247  0.33473017  0.54299646     0.08500
H314        H  0.32174009  0.34304364  0.51948592     0.08500
H315        H  0.27639063  0.45650104  0.60265369     0.08500
H316        H  0.23994814  0.45819085  0.58099247     0.08500
H317        H  0.30254934  0.50195925  0.58209276     0.05300
C318        C  0.04749174  0.15593760  0.56320307    -0.20600
C319        C  0.07391447  0.15327537  0.54590325    -0.07100
C320        C  0.12002461  0.19276484  0.54150048     0.13700
C321        C  0.13825341  0.23358576  0.55457046    -0.20600
C322        C  0.11299423  0.23542310  0.57256146    -0.07100
C323        C  0.06649001  0.19600558  0.57678582     0.13700
C324        C  0.03553597  0.19597367  0.59497044    -0.24000
H325        H  0.01199752  0.12582640  0.56642919     0.15000
H326        H  0.17276232  0.26411599  0.55073505     0.15100
C327        C  0.14986241  0.19292247  0.52277062    -0.23900
H328        H  0.99831224  0.16536823  0.59382683     0.05300
H329        H  0.03389514  0.22947507  0.59454069     0.08500
H330        H  0.04955036  0.19236159  0.61068850     0.08500
H331        H  0.12951485  0.18623926  0.50757270     0.08500
H332        H  0.15982094  0.16481089  0.52518040     0.08500
H333        H  0.18363311  0.22793789  0.52106531     0.05300
C334        C  0.04677393  0.39074329  0.56446561    -0.20600
C335        C  0.07543369  0.42473944  0.54877028    -0.07100
C336        C  0.12342960  0.43576949  0.54606953     0.13700
C337        C  0.14089024  0.41184053  0.55887751    -0.20600
C338        C  0.11234756  0.37822051  0.57469762    -0.07100
C339        C  0.06449949  0.36748922  0.57751560     0.13700
C340        C  0.03079680  0.32974088  0.59325116    -0.24000
H341        H  0.00997796  0.38211656  0.56649391     0.15000
H342        H  0.17719331  0.41936267  0.55645515     0.15100
C343        C  0.15611730  0.47132989  0.52931482    -0.23900
H344        H  0.99393859  0.32380882  0.59201922     0.05300
H345        H  0.04259489  0.34058866  0.61001278     0.08500
H346        H  0.02896982  0.29519875  0.58976871     0.08500
H347        H  0.16264030  0.50786099  0.53305898     0.08500
H348        H  0.13981174  0.46042837  0.51312644     0.08500
H349        H  0.19146881  0.47340505  0.52881319     0.05300
C350        C  0.47395187  0.45602391  0.98915215    -0.20600
C351        C  0.99930910  0.99893127  0.97701936    -0.07100
C352        C  0.02299779  0.04286459  0.98867173     0.13700
C353        C  0.02309090  0.04192744  0.01129478    -0.20600
C354        C  0.99903687  0.99896393  0.02341814    -0.07100
C355        C  0.47306800  0.45515625  0.01180325     0.13700
C356        C  0.44363455  0.40642477  0.02271000    -0.24000
H357        H  0.45339981  0.42211292  0.98126684     0.15000
H358        H  0.04198325  0.07603745  0.01914974     0.15100
C359        C  0.04749142  0.09197252  0.97788471    -0.23900
H360        H  0.42607353  0.37692160  0.01086577     0.05300
H361        H  0.41446008  0.40509928  0.03254463     0.08500
H362        H  0.46618211  0.39729315  0.03278067     0.08500
H363        H  0.02125205  0.09716379  0.96868670     0.08500
H364        H  0.07730596  0.09730260  0.96733867     0.08500
H365        H  0.06328000  0.12161917  0.98973950     0.05300
C366        C  0.18738923  0.37714423  0.67688888    -0.20600
C367        C  0.16786788  0.33495295  0.68960914    -0.07100
C368        C  0.14566744  0.29012528  0.67865860     0.13700
C369        C  0.14381355  0.28931546  0.65610757    -0.20600
C370        C  0.16377447  0.33152331  0.64338032    -0.07100
C371        C  0.18573877  0.37634072  0.65433547     0.13700
C372        C  0.20814520  0.42513617  0.64333579    -0.24000
H373        H  0.20448806  0.41211552  0.68409077     0.15000
H374        H  0.12583570  0.25431846  0.64892642     0.15100
C375        C  0.12308169  0.24133395  0.68966589    -0.23900
H376        H  0.24657435  0.44628307  0.64765647     0.05300
H377        H  0.19006534  0.44474051  0.64900375     0.08500
H378        H  0.20611711  0.42440815  0.62565891     0.08500
H379        H  0.12462013  0.24207552  0.70735642     0.08500
H380        H  0.14132291  0.22177168  0.68415339     0.08500
H381        H  0.08475415  0.22014132  0.68518014     0.05300
C382        C  0.46076273  0.35344488  0.87849216    -0.20600
C383        C  0.41117139  0.32246753  0.88001538    -0.07100
C384        C  0.38425682  0.33426058  0.89425107     0.13700
C385        C  0.40792367  0.37611811  0.90668542    -0.20600
C386        C  0.45755120  0.40678413  0.90523166    -0.07100
C387        C  0.48431097  0.39510140  0.89093541     0.13700
C388        C  0.03781858  0.42416657  0.88886800    -0.24000
H389        H  0.48163741  0.34486970  0.86759870     0.15000
H390        H  0.38750347  0.38522942  0.91759483     0.15100
C391        C  0.33089051  0.30262490  0.89695204    -0.23900
H392        H  0.04787486  0.44007379  0.87244743     0.05300
H393        H  0.05336346  0.40064300  0.89171123     0.08500
H394        H  0.05380418  0.45308774  0.90070994     0.08500
H395        H  0.32206947  0.26560794  0.90158791     0.08500
H396        H  0.31256242  0.30177893  0.88173097     0.08500
H397        H  0.31654567  0.31612591  0.90968084     0.05300
C398        C  0.17841891  0.06097814  0.89869784    -0.20600
C399        C  0.18329307  0.09355255  0.88235484    -0.07100
C400        C  0.14609878  0.10412737  0.87917520     0.13700
C401        C  0.10528969  0.08176786  0.89237346    -0.20600
C402        C  0.10034032  0.04911327  0.90865893    -0.07100
C403        C  0.13738558  0.03820240  0.91175565     0.13700
C404        C  0.13424139  0.50060688  0.92755472    -0.24000
H405        H  0.20659809  0.05243772  0.90106614     0.15000
H406        H  0.07672478  0.08966048  0.88986281     0.15100
C407        C  0.14801479  0.13736905  0.86142534    -0.23900
H408        H  0.14033696  0.47397284  0.91891734     0.05300
H409        H  0.09903139  0.47994714  0.93558206     0.08500
H410        H  0.16221948  0.51819004  0.94002426     0.08500
H411        H  0.15327172  0.12457954  0.84565217     0.08500
H412        H  0.17764941  0.17451444  0.86432031     0.08500
H413        H  0.11444978  0.13885873  0.86053502     0.05300
C414        C  0.45131161  0.11683174  0.89358850    -0.20600
C415        C  0.41264806  0.08712261  0.88022788    -0.07100
C416        C  0.39727011  0.03716492  0.87949350     0.13700
C417        C  0.42018551  0.01866154  0.89239151    -0.20600
C418        C  0.45755138  0.04828625  0.90617238    -0.07100
C419        C  0.47378501  0.09807172  0.90656169     0.13700
C420        C  0.01531204  0.13173540  0.92035197    -0.24000
H421        H  0.46371092  0.15502470  0.89415155     0.15000
H422        H  0.40878083  0.48071762  0.89186963     0.15100
C423        C  0.35772534  0.00301854  0.86485371    -0.23900
H424        H  0.02540768  0.16989152  0.91760908     0.05300
H425        H  0.04697215  0.12809101  0.91669388     0.07600
H426        H  0.00543735  0.12321385  0.93751851     0.08500
H427        H  0.36625437  0.01610484  0.84794438     0.08500
H428        H  0.32326383  0.99984418  0.86982166     0.08500
H429        H  0.35325287  0.46641689  0.86538756     0.05300
C430        C  0.28609755  0.27395704  0.76634497    -0.20600
C431        C  0.25899488  0.24222850  0.78299582    -0.07100
C432        C  0.21189786  0.23285223  0.78684379     0.13700
C433        C  0.19361198  0.25622236  0.77419313    -0.20600
C434        C  0.22112541  0.28902371  0.75790765    -0.07100
C435        C  0.26829265  0.29822481  0.75398640     0.13700
C436        C  0.30205453  0.33469937  0.73777658    -0.24000
H437        H  0.32234625  0.28146156  0.76353424     0.15000
H438        H  0.15733267  0.24862547  0.77697404     0.15100
C439        C  0.18015736  0.19720346  0.80380441    -0.23900
H440        H  0.33540530  0.36111991  0.74600943     0.05300
H441        H  0.28764506  0.35550138  0.72976485     0.08500
H442        H  0.31126869  0.31618545  0.72524128     0.08500
H443        H  0.19495609  0.21018773  0.82006232     0.08500
H444        H  0.17727467  0.16174751  0.80097161     0.08500
H445        H  0.14347480  0.19196538  0.80354632     0.05300
C446        C  0.07390892  0.31151538  0.77798417    -0.20600
C447        C  0.07750748  0.28584648  0.76059802    -0.07100
C448        C  0.03956514  0.23844852  0.75684833     0.13700
C449        C  0.49818122  0.21945800  0.76975386    -0.20600
C450        C  0.49412424  0.24585755  0.78670582    -0.07100
C451        C  0.03272896  0.29240565  0.79099077     0.13700
C452        C  0.03015091  0.32290259  0.80869956    -0.24000
H453        H  0.10330920  0.34702044  0.78134172     0.15000
H454        H  0.46895629  0.18335688  0.76680028     0.15100
C455        C  0.04324227  0.20652990  0.74018502    -0.23900
H456        H  0.06247166  0.35931373  0.80894840     0.05300
H457        H  0.02744598  0.30571502  0.82458970     0.08500
H458        H  0.99853851  0.32735772  0.80629621     0.08500
H459        H  0.07664588  0.20528820  0.74262177     0.08500
H460        H  0.04273787  0.21977397  0.72375669     0.08500
H461        H  0.51274299  0.16907358  0.74132026     0.05300
C462        C  0.28811684  0.50227032  0.77353387    -0.20600
C463        C  0.25838659  0.01458231  0.78492797    -0.07100
C464        C  0.20827559  0.48501359  0.78368541     0.13700
C465        C  0.18893011  0.44370982  0.77089006    -0.20600
C466        C  0.21857545  0.43053608  0.76003167    -0.07100
C467        C  0.26872931  0.46004507  0.76136524     0.13700
C468        C  0.30173380  0.44621253  0.75057938    -0.24000
H469        H  0.32659384  0.02504412  0.77474886     0.15000
H470        H  0.15059224  0.42208389  0.76910358     0.15100
C471        C  0.17519254  0.99748068  0.79546365    -0.23900
H472        H  0.33991650  0.47317354  0.75335845     0.05300
H473        H  0.29557327  0.44310666  0.73295069     0.08500
H474        H  0.29490040  0.41124940  0.75730135     0.08500
H475        H  0.18213651  0.03353309  0.79018086     0.08500
H476        H  0.18110748  0.99779200  0.81307045     0.08500
H477        H  0.13707259  0.47102698  0.79235862     0.05300
O478        O  0.41386787  0.75822260  0.86226373    -0.78700
C479        C  0.39026395  0.60976684  0.86718596     0.82300
O480        O  0.40935280  0.70283324  0.78948524    -0.79900
O481        O  0.27528049  0.55290823  0.81862403    -0.81300
O482        O  0.24479522  0.65731620  0.86181374    -0.81100
O483        O  0.34672799  0.76119623  0.86009380    -0.79800
Zn484      Zn  0.40262445  0.70076416  0.84429775     1.55700
O485        O  0.24471255  0.58810058  0.86351340    -0.81200
Cd486      Cd  0.30273214  0.70100334  0.84262611     1.59700
Cd487      Cd  0.33935692  0.66867284  0.80063798     1.59600
O488        O  0.27715670  0.72198336  0.81701391    -0.81100
O489        O  0.33778256  0.66807916  0.83292840    -1.91700
Cd490      Cd  0.30197581  0.60031955  0.84395752     1.59900
O491        O  0.30498176  0.70362413  0.78791943    -0.81100
O492        O  0.34686197  0.58434309  0.86136158    -0.79800
C493        C  0.44914276  0.72393857  0.79939662     0.82800
C494        C  0.38928176  0.77814487  0.86682104     0.82400
O495        O  0.41477074  0.65444229  0.86224558    -0.78700
C496        C  0.22663922  0.61411176  0.86847687     0.83200
O497        O  0.45112158  0.72588231  0.81988690    -0.78800
C498        C  0.28132882  0.72110087  0.79669265     0.83400
C499        C  0.28064779  0.55793332  0.79827950     0.83700
O500        O  0.30495138  0.59891980  0.78912610    -0.81200
C501        C  0.17083334  0.83771319  0.71435293     0.86200
C502        C  0.19578319  0.88798574  0.72499606    -0.54000
C503        C  0.19638467  0.88646458  0.74689810     0.09200
C504        C  0.17249366  0.83545845  0.75645645     0.20100
C505        C  0.19756963  0.81332246  0.72365621    -0.54700
C506        C  0.19874826  0.81231071  0.74559329     0.09300
C507        C  0.12109044  0.81204781  0.72507004    -0.54300
C508        C  0.12168520  0.80942956  0.74701473     0.09800
H509        H  0.21182492  0.92240763  0.71682011     0.14400
H510        H  0.17344801  0.83471012  0.77432484     0.00100
H511        H  0.21339742  0.79730764  0.71365144     0.14700
H512        H  0.08832589  0.79821595  0.71590448     0.14400
C513        C  0.00065651  0.49782890  0.95208871     0.86200
C514        C  0.47648233  0.52361721  0.94148071    -0.54000
C515        C  0.47976669  0.52630461  0.91956095     0.09200
C516        C  0.00590102  0.50189436  0.90993087     0.20100
C517        C  0.47660658  0.94797154  0.94087974    -0.54700
C518        C  0.47959098  0.95036887  0.91893016     0.09300
C519        C  0.05203182  0.52309646  0.94298944    -0.54300
C520        C  0.05483681  0.52561897  0.92104881     0.09800
H521        H  0.45706271  0.53727212  0.95049314     0.14400
H522        H  0.00786593  0.50357035  0.89206105     0.00100
H523        H  0.45922499  0.91321753  0.94879363     0.14700
H524        H  0.08359561  0.53719954  0.95304127     0.14400
O525        O  0.40334797  0.98611197  0.52891101    -0.78700
C526        C  0.05202776  0.60921040  0.53273372     0.82300
O527        O  0.45491310  0.52722926  0.45635211    -0.79900
O528        O  0.10725932  0.55287446  0.48259931    -0.81300
O529        O  0.00894838  0.91988052  0.53038757    -0.81100
O530        O  0.40439877  0.91761919  0.53027154    -0.79800
Zn531      Zn  0.46182543  0.53095194  0.51086979     1.55700
O532        O  0.07803896  0.98880143  0.52792619    -0.81200
Cd533      Cd  0.46259649  0.93113506  0.51176253     1.59700
Cd534      Cd  0.49116691  0.99429281  0.46757742     1.59600
O535        O  0.43725048  0.88073532  0.48762835    -0.81100
O536        O  0.49395233  0.99770035  0.49977788    -1.91700
Cd537      Cd  0.06225008  0.53184507  0.50886907     1.59900
O538        O  0.45514030  0.92325081  0.45715124    -0.81100
O539        O  0.07802969  0.59255815  0.52603171    -0.79800
C540        C  0.43795435  0.55053824  0.46575386     0.82800
C541        C  0.38499480  0.94235213  0.53508349     0.82400
O542        O  0.00737658  0.58842895  0.52868778    -0.78700
C543        C  0.05315512  0.94578168  0.53489367     0.83200
O544        O  0.43928709  0.55563905  0.48610885    -0.78800
C545        C  0.43650578  0.88299271  0.46718545     0.83400
C546        C  0.10101230  0.55044808  0.46231709     0.83700
O547        O  0.05946390  0.53024657  0.45395182    -0.81200
C548        C  0.33045582  0.66419585  0.38159810     0.86200
C549        C  0.27921243  0.63508334  0.39078315    -0.54000
C550        C  0.27651088  0.63103125  0.41268797     0.09200
C551        C  0.32548336  0.65810428  0.42369846     0.20100
C552        C  0.35124225  0.71335507  0.39317232    -0.54700
C553        C  0.34741956  0.71012015  0.41520163     0.09300
C554        C  0.35873435  0.64235591  0.39165671    -0.54300
C555        C  0.35596599  0.63880923  0.41345843     0.09800
H556        H  0.24751090  0.62023022  0.38077524     0.14400
H557        H  0.32305418  0.65511760  0.44149425     0.00100
H558        H  0.36875406  0.74815714  0.38534240     0.14700
H559        H  0.38024540  0.63158432  0.38237403     0.14400
C560        C  0.16149535  0.82893989  0.61860964     0.86200
C561        C  0.13769094  0.77870266  0.60792545    -0.54000
C562        C  0.13574184  0.77976042  0.58598549     0.09200
C563        C  0.16009886  0.83107622  0.57651767     0.20100
C564        C  0.21128128  0.85533327  0.60808555    -0.54700
C565        C  0.21070633  0.85716758  0.58621681     0.09300
C566        C  0.13419064  0.85267491  0.60917636    -0.54300
C567        C  0.13364849  0.85411249  0.58722524     0.09800
H568        H  0.12554321  0.74497325  0.61621685     0.14400
H569        H  0.15982662  0.83238617  0.55864785     0.00100
H570        H  0.24429912  0.87110857  0.61721355     0.14700
H571        H  0.11905284  0.86929477  0.61917144     0.14400
O572        O  0.17948148  0.75294337  0.19571868    -0.78700
C573        C  0.05737266  0.77559863  0.20164953     0.82300
O574        O  0.13434570  0.75829699  0.12320947    -0.79900
O575        O  0.10629692  0.88447616  0.15053661    -0.81300
O576        O  0.24614404  0.92349919  0.19480065    -0.81100
O577        O  0.24947539  0.82122838  0.19472527    -0.79800
Zn578      Zn  0.13433834  0.76481569  0.17783258     1.55700
O579        O  0.17875803  0.92599597  0.19380707    -0.81200
Cd580      Cd  0.23374035  0.86546620  0.17642678     1.59700
Cd581      Cd  0.16615100  0.82841680  0.13407840     1.59600
O582        O  0.28116784  0.89211568  0.15085098    -0.81100
O583        O  0.16618107  0.83000853  0.16632667    -1.91700
Cd584      Cd  0.13273844  0.86447897  0.17658404     1.59900
O585        O  0.23488467  0.86424070  0.12180316    -0.81100
O586        O  0.07518095  0.81971125  0.19624197    -0.79800
C587        C  0.11453743  0.71842636  0.13350049     0.82800
C588        C  0.22350272  0.77752441  0.20070202     0.82400
O589        O  0.07635862  0.75101723  0.19572591    -0.78700
C590        C  0.22215694  0.94360624  0.19973898     0.83200
O591        O  0.11230322  0.71681310  0.15395392    -0.78800
C592        C  0.27581451  0.88764148  0.13054360     0.83400
C593        C  0.10877062  0.88123128  0.13017168     0.83700
O594        O  0.13011036  0.86122051  0.12152923    -0.81200
C595        C  0.00008889  0.49988253  0.04831323     0.86200
C596        C  0.02012906  0.96908325  0.05786022    -0.54000
C597        C  0.01795786  0.96523320  0.07979452     0.09200
C598        C  0.99777604  0.49440378  0.09042718     0.20100
C599        C  0.45014074  0.98003236  0.05814900    -0.54700
C600        C  0.44876576  0.97696380  0.07998672     0.09300
C601        C  0.02988096  0.54895617  0.05978019    -0.54300
C602        C  0.02979642  0.54591909  0.08179075     0.09800
H603        H  0.03630129  0.95307929  0.04808964     0.14400
H604        H  0.99688178  0.49186802  0.10821445     0.00100
H605        H  0.41830551  0.96982430  0.04866644     0.14700
H606        H  0.04874410  0.58366365  0.05193592     0.14400
C607        C  0.33132468  0.66208455  0.28542132     0.86200
C608        C  0.38221415  0.68674818  0.27580515    -0.54000
C609        C  0.38422989  0.69038750  0.25386340     0.09200
C610        C  0.33460210  0.66692927  0.24331232     0.20100
C611        C  0.30676926  0.68823557  0.27547475    -0.54700
C612        C  0.30958718  0.69203252  0.25351265     0.09300
C613        C  0.30561724  0.61253488  0.27421168    -0.54300
C614        C  0.30731563  0.61528739  0.25232032     0.09800
H615        H  0.41373045  0.69891862  0.28571794     0.14400
H616        H  0.33596757  0.66884461  0.22544621     0.00100
H617        H  0.28743084  0.70095062  0.28511834     0.14700
H618        H  0.28653620  0.57776461  0.28207028     0.14400
C619        C  0.37380956  0.90550369  0.09178367    -0.20600
C620        C  0.40326594  0.95564507  0.09212368    -0.07100
C621        C  0.38834282  0.98369070  0.10362692     0.13700
C622        C  0.34679085  0.96047401  0.11631822    -0.20600
C623        C  0.31857821  0.91020304  0.11672863    -0.07100
C624        C  0.33160451  0.88234731  0.10401251     0.13700
C625        C  0.30183048  0.82823350  0.10383211    -0.24000
H626        H  0.38411568  0.88437118  0.08199906     0.15000
H627        H  0.33570253  0.98176446  0.12556132     0.15100
C628        C  0.41347447  0.03770337  0.10193549    -0.23900
H629        H  0.31801213  0.81208107  0.09345953     0.05300
H630        H  0.26560237  0.81699136  0.09756678     0.08500
H631        H  0.29868559  0.81381224  0.12042310     0.08500
H632        H  0.44484657  0.55285341  0.09102146     0.08500
H633        H  0.42503956  0.05363796  0.11813852     0.08500
H634        H  0.38830170  0.04865071  0.09546179     0.05300
C635        C  0.11839940  0.67105501  0.10299194    -0.20600
C636        C  0.09407345  0.67290607  0.12136081    -0.07100
C637        C  0.05122186  0.63126675  0.12779721     0.13700
C638        C  0.03280689  0.58993863  0.11509555    -0.20600
C639        C  0.05558598  0.58869434  0.09604756    -0.07100
C640        C  0.10080554  0.62899942  0.09076400     0.13700
C641        C  0.13308119  0.62831282  0.07338108    -0.24000
H642        H  0.15238729  0.70220493  0.09856190     0.15000
H643        H  0.99959038  0.55877265  0.11996344     0.15100
C644        C  0.02334434  0.63049571  0.14745684    -0.23900
H645        H  0.16916456  0.64060015  0.08013870     0.05300
H646        H  0.13639034  0.65304028  0.06005731     0.08500
H647        H  0.12063818  0.59187415  0.06695817     0.08500
H648        H  0.01467796  0.65979593  0.14628907     0.08500
H649        H  0.04443831  0.63496203  0.16221193     0.08500
H650        H  0.98913443  0.59593042  0.14917573     0.05300
C651        C  0.03815265  0.88820788  0.12083823    -0.20600
C652        C  0.08557612  0.90104701  0.11628468    -0.07100
C653        C  0.10997496  0.93324848  0.09908972     0.13700
C654        C  0.08677104  0.95316753  0.08741133    -0.20600
C655        C  0.03945862  0.94095083  0.09217192    -0.07100
C656        C  0.01438890  0.90684628  0.10872750     0.13700
C657        C  0.46192029  0.88736766  0.11290241    -0.24000
H658        H  0.01930161  0.86265240  0.13374500     0.15000
H659        H  0.10576299  0.47892029  0.07465362     0.15100
C660        C  0.16096782  0.94810108  0.09350960    -0.23900
H661        H  0.44764754  0.85833525  0.12530516     0.05300
H662        H  0.44190671  0.87177320  0.09784573     0.08500
H663        H  0.45512287  0.91578737  0.11880186     0.08500
H664        H  0.16314119  0.91633887  0.08819562     0.08500
H665        H  0.18409973  0.96419576  0.10778238     0.08500
H666        H  0.17484265  0.47479673  0.08015014     0.05300
C667        C  0.25958264  0.68956506  0.22270717    -0.20600
C668        C  0.28768214  0.71493939  0.24041727    -0.07100
C669        C  0.29598146  0.76192166  0.24442504     0.13700
C670        C  0.27483138  0.78135458  0.23102893    -0.20600
C671        C  0.24509938  0.75503995  0.21395364    -0.07100
C672        C  0.23770834  0.70866318  0.20958838     0.13700
C673        C  0.20834001  0.67984216  0.19067800    -0.24000
H674        H  0.25458514  0.65442636  0.21907610     0.15000
H675        H  0.28107735  0.81725479  0.23406228     0.15100
C676        C  0.32871339  0.79295824  0.26202910    -0.23900
H677        H  0.20866440  0.64559654  0.18900369     0.05300
H678        H  0.22299022  0.70098461  0.17557445     0.08500
H679        H  0.17055724  0.67053977  0.19278671     0.08500
H680        H  0.36397760  0.79546913  0.26037934     0.08500
H681        H  0.31308944  0.77810011  0.27804995     0.08500
H682        H  0.33465537  0.83012572  0.26125986     0.05300
C683        C  0.31431247  0.55791700  0.22850062    -0.20600
C684        C  0.28476529  0.57193978  0.23867657    -0.07100
C685        C  0.23473286  0.54376410  0.23635236     0.13700
C686        C  0.21555536  0.50275102  0.22330174    -0.20600
C687        C  0.24509004  0.98832745  0.21288553    -0.07100
C688        C  0.29553236  0.01694087  0.21548841     0.13700
C689        C  0.33046986  0.00547101  0.20468909    -0.24000
H690        H  0.35241481  0.57846166  0.23124320     0.15000
H691        H  0.17708409  0.48124331  0.22162064     0.15100
C692        C  0.20144525  0.55632151  0.24790607    -0.23900
H693        H  0.36818968  0.03347470  0.20774495     0.05300
H694        H  0.32513463  0.00350079  0.18699172     0.08500
H695        H  0.32572695  0.97093489  0.21101316     0.08500
H696        H  0.20955436  0.59304582  0.24334697     0.08500
H697        H  0.20562945  0.55474203  0.26556388     0.08500
H698        H  0.16342289  0.53096988  0.24395402     0.05300
C699        C  0.43325059  0.68748308  0.22365017    -0.20600
C700        C  0.42974674  0.71296071  0.24115245    -0.07100
C701        C  0.46845890  0.75976578  0.24531973     0.13700
C702        C  0.00954773  0.77893712  0.23219582    -0.20600
C703        C  0.01347553  0.75263971  0.21516683    -0.07100
C704        C  0.47465096  0.70623166  0.21081117     0.13700
C705        C  0.47569951  0.67694519  0.19216298    -0.24000
H706        H  0.40331956  0.65261432  0.21987950     0.15000
H707        H  0.03903175  0.81481200  0.23529594     0.15100
C708        C  0.46615456  0.79103757  0.26270051    -0.23900
H709        H  0.44124601  0.64271231  0.19045615     0.05300
H710        H  0.50404553  0.66754881  0.19463783     0.08500
H711        H  0.48261214  0.69776724  0.17693483     0.08500
H712        H  0.46570441  0.77600160  0.27883416     0.08500
H713        H  0.43381925  0.79411629  0.26054984     0.08500
H714        H  0.49764522  0.82798737  0.26214591     0.05300
C715        C  0.35009176  0.70629712  0.34452584    -0.20600
C716        C  0.33128678  0.66336686  0.35669976    -0.07100
C717        C  0.31322102  0.61945409  0.34512143     0.13700
C718        C  0.31393894  0.62026712  0.32247783    -0.20600
C719        C  0.33196410  0.66314664  0.31030763    -0.07100
C720        C  0.35160314  0.70707250  0.32191346     0.13700
C721        C  0.37528069  0.75650027  0.31151538    -0.24000
H722        H  0.36450784  0.74059339  0.35225145     0.15000
H723        H  0.30096086  0.58634257  0.31462058     0.15100
C724        C  0.29290407  0.57060911  0.35605224    -0.23900
H725        H  0.35492939  0.77475768  0.31571644     0.05300
H726        H  0.37829644  0.75681820  0.29386835     0.08500
H727        H  0.41226430  0.77824224  0.31773179     0.08500
H728        H  0.26174717  0.56257048  0.36630483     0.08500
H729        H  0.32037500  0.56822916  0.36569540     0.08500
H730        H  0.27994838  0.54094816  0.34422796     0.05300
C731        C  0.17590262  0.55352923  0.45213006    -0.20600
C732        C  0.14383310  0.56996813  0.44840106    -0.07100
C733        C  0.15438764  0.60532414  0.43235634     0.13700
C734        C  0.19764900  0.62416719  0.42075661    -0.20600
C735        C  0.23022036  0.60807927  0.42470925    -0.07100
C736        C  0.21835197  0.57132084  0.44024830     0.13700
C737        C  0.24836426  0.54826126  0.44354342    -0.24000
H738        H  0.16714657  0.52580547  0.46424533     0.15000
H739        H  0.20655716  0.65225824  0.40883431     0.15100
C740        C  0.12113328  0.62449731  0.42806603    -0.23900
H741        H  0.23241591  0.51858476  0.45562599     0.05300
H742        H  0.28428494  0.57488960  0.44941087     0.08500
H743        H  0.25060593  0.53255946  0.42807793     0.08500
H744        H  0.11590243  0.64006244  0.44302443     0.08500
H745        H  0.08604589  0.59499937  0.42249654     0.08500
H746        H  0.13557128  0.65305609  0.41544296     0.05300
C747        C  0.38818001  0.75362685  0.44878911    -0.20600
C748        C  0.36513655  0.75304080  0.42952649    -0.07100
C749        C  0.36168443  0.79416705  0.42405855     0.13700
C750        C  0.38670124  0.83624422  0.43622821    -0.20600
C751        C  0.41213456  0.83758923  0.45476136    -0.07100
C752        C  0.41204389  0.79522032  0.46134430     0.13700
C753        C  0.43856668  0.79376231  0.48105135    -0.24000
H754        H  0.38866402  0.72168838  0.45397764     0.15000
H755        H  0.38459961  0.86779124  0.43167191     0.15100
C756        C  0.32930252  0.79425423  0.40661432    -0.23900
H757        H  0.43754158  0.75880189  0.48274815     0.05300
H758        H  0.42202649  0.79857864  0.49577975     0.08500
H759        H  0.97669214  0.82252658  0.47993577     0.08500
H760        H  0.30486761  0.75795635  0.40019947     0.08500
H761        H  0.35110168  0.81867834  0.39328797     0.08500
H762        H  0.30603351  0.80733915  0.41331325     0.05300
C763        C  0.44237685  0.62246474  0.44892673    -0.20600
C764        C  0.41654635  0.57260522  0.45245536    -0.07100
C765        C  0.37292025  0.54420657  0.44170902     0.13700
C766        C  0.35508320  0.56676457  0.42831748    -0.20600
C767        C  0.37922894  0.61688223  0.42589281    -0.07100
C768        C  0.42494265  0.64473944  0.43503623     0.13700
C769        C  0.45714451  0.69650650  0.42852252    -0.24000
H770        H  0.47721175  0.64358236  0.45627083     0.15000
H771        H  0.32236143  0.54519893  0.41955902     0.15100
C772        C  0.34493871  0.49032397  0.44459856    -0.23900
H773        H  0.49173893  0.71295305  0.43721226     0.05300
H774        H  0.44010263  0.71811182  0.43173879     0.08500
H775        H  0.46475673  0.69850166  0.41099911     0.08500
H776        H  0.33581797  0.48118998  0.46187567     0.08500
H777        H  0.36626075  0.97430070  0.43896570     0.08500
H778        H  0.31086314  0.97385499  0.43537304     0.05300
C779        C  0.26723586  0.85013714  0.56185221    -0.20600
C780        C  0.25518963  0.87997436  0.57318294    -0.07100
C781        C  0.28613177  0.93028133  0.57240812     0.13700
C782        C  0.32783334  0.94953199  0.55970203    -0.20600
C783        C  0.34001330  0.91966495  0.54809924    -0.07100
C784        C  0.30876458  0.86897566  0.54916229     0.13700
C785        C  0.31776758  0.83399280  0.53677293    -0.24000
H786        H  0.24465842  0.81161177  0.56345077     0.15000
H787        H  0.35150897  0.98817722  0.55917593     0.15100
C788        C  0.27574533  0.96369354  0.58520475    -0.23900
H789        H  0.28778591  0.79638308  0.53855988     0.05300
H790        H  0.35041959  0.83474039  0.54282678     0.08500
H791        H  0.32167709  0.84322144  0.51934873     0.08500
H792        H  0.27657201  0.95657214  0.60263757     0.08500
H793        H  0.24007049  0.95827307  0.58100664     0.08500
H794        H  0.30267582  0.00203606  0.58207677     0.05300
C795        C  0.04753514  0.65605128  0.56318827    -0.20600
C796        C  0.07393635  0.65338458  0.54588036    -0.07100
C797        C  0.12001841  0.69289751  0.54145380     0.13700
C798        C  0.13825777  0.73372723  0.55452082    -0.20600
C799        C  0.11303226  0.73555684  0.57252823    -0.07100
C800        C  0.06653757  0.69613276  0.57676326     0.13700
C801        C  0.03558964  0.69610939  0.59494851    -0.24000
H802        H  0.01205446  0.62593035  0.56642826     0.15000
H803        H  0.17274908  0.76426709  0.55067084     0.15100
C804        C  0.14981293  0.69306880  0.52270257    -0.23900
H805        H  0.99837539  0.66548069  0.59381835     0.05300
H806        H  0.03391361  0.72959081  0.59450115     0.08500
H807        H  0.04962618  0.69254575  0.61066872     0.08500
H808        H  0.12941514  0.68635928  0.50751832     0.08500
H809        H  0.15980727  0.66498001  0.52509801     0.08500
H810        H  0.18356244  0.72809847  0.52098061     0.05300
C811        C  0.04691265  0.89087162  0.56445357    -0.20600
C812        C  0.07555138  0.92483783  0.54874260    -0.07100
C813        C  0.12356675  0.93591189  0.54605834     0.13700
C814        C  0.14104659  0.91201933  0.55888066    -0.20600
C815        C  0.11251927  0.87842124  0.57471135    -0.07100
C816        C  0.06467221  0.86768809  0.57753068     0.13700
C817        C  0.03101455  0.83002862  0.59330857    -0.24000
H818        H  0.01011156  0.88222803  0.56648056     0.15000
H819        H  0.17735308  0.91955090  0.55646023     0.15100
C820        C  0.15626384  0.97148948  0.52931117    -0.23900
H821        H  0.99414139  0.82405229  0.59206815     0.05300
H822        H  0.04284026  0.84100754  0.61005696     0.08500
H823        H  0.02921995  0.79547843  0.58988584     0.08500
H824        H  0.16273930  0.00800640  0.53304962     0.08500
H825        H  0.13999491  0.96057429  0.51311693     0.08500
H826        H  0.19163644  0.97360888  0.52882822     0.05300
C827        C  0.47399948  0.95602678  0.98915642    -0.20600
C828        C  0.99931261  0.49892237  0.97701736    -0.07100
C829        C  0.02299820  0.54285476  0.98866997     0.13700
C830        C  0.02303380  0.54191929  0.01129248    -0.20600
C831        C  0.99894867  0.49895811  0.02341487    -0.07100
C832        C  0.47316628  0.95515584  0.01180739     0.13700
C833        C  0.44379899  0.90641481  0.02271492    -0.24000
H834        H  0.45344112  0.92211450  0.98127320     0.15000
H835        H  0.04190574  0.57603054  0.01914698     0.15100
C836        C  0.04755777  0.59196292  0.97788303    -0.23900
H837        H  0.42625573  0.87690793  0.01087126     0.05300
H838        H  0.41461433  0.90503821  0.03256001     0.08500
H839        H  0.46639450  0.89732784  0.03277490     0.08500
H840        H  0.02135939  0.59719421  0.96867248     0.08500
H841        H  0.07737710  0.59725560  0.96734963     0.08500
H842        H  0.06335560  0.62160909  0.98973779     0.05300
C843        C  0.18763224  0.87720569  0.67688290    -0.20600
C844        C  0.16803277  0.83500383  0.68959843    -0.07100
C845        C  0.14581324  0.79018452  0.67864072     0.13700
C846        C  0.14398798  0.78939218  0.65608841    -0.20600
C847        C  0.16397154  0.83160919  0.64336646    -0.07100
C848        C  0.18598846  0.87641918  0.65432882     0.13700
C849        C  0.20845369  0.92522469  0.64333636    -0.24000
H850        H  0.20477873  0.91217269  0.68408959     0.15000
H851        H  0.12600027  0.75440103  0.64890180     0.15100
C852        C  0.12316941  0.74138395  0.68964191    -0.23900
H853        H  0.24689069  0.94631635  0.64764981     0.05300
H854        H  0.19043307  0.94487792  0.64901632     0.08500
H855        H  0.20640157  0.92450844  0.62566038     0.08500
H856        H  0.12465773  0.74211134  0.70733340     0.08500
H857        H  0.14140160  0.72180285  0.68414320     0.08500
H858        H  0.08485208  0.72021762  0.68513666     0.05300
C859        C  0.46076676  0.85341803  0.87852643    -0.20600
C860        C  0.41115366  0.82250357  0.87999270    -0.07100
C861        C  0.38420539  0.83434698  0.89418578     0.13700
C862        C  0.40785894  0.87618440  0.90663409    -0.20600
C863        C  0.45750385  0.90677452  0.90523812    -0.07100
C864        C  0.48429927  0.89504556  0.89098866     0.13700
C865        C  0.03782425  0.92404785  0.88898936    -0.24000
H866        H  0.48167261  0.84481009  0.86766819     0.15000
H867        H  0.38741758  0.88533871  0.91750988     0.15100
C868        C  0.33081477  0.80278915  0.89682890    -0.23900
H869        H  0.04800742  0.93996551  0.87257522     0.05300
H870        H  0.05329213  0.90047006  0.89187348     0.08500
H871        H  0.05377106  0.95296149  0.90083898     0.08500
H872        H  0.32190030  0.76575011  0.90147610     0.08500
H873        H  0.31258992  0.80198974  0.88158161     0.08500
H874        H  0.31644083  0.81632732  0.90952844     0.05300
C875        C  0.17845826  0.56078430  0.89869653    -0.20600
C876        C  0.18339937  0.59345283  0.88238608    -0.07100
C877        C  0.14626864  0.60413689  0.87923928     0.13700
C878        C  0.10546524  0.58180309  0.89243889    -0.20600
C879        C  0.10045362  0.54906696  0.90869316    -0.07100
C880        C  0.13742509  0.53803760  0.91175717     0.13700
C881        C  0.13429615  0.00086992  0.92758800    -0.24000
H882        H  0.20658213  0.55215418  0.90103833     0.15000
H883        H  0.07694658  0.58977363  0.88995121     0.15100
C884        C  0.14823612  0.63746816  0.86152066    -0.23900
H885        H  0.14051324  0.97428051  0.91898298     0.05300
H886        H  0.09908109  0.98013615  0.93560315     0.08500
H887        H  0.16223806  0.01855638  0.94006442     0.08500
H888        H  0.15346160  0.62471506  0.84573166     0.08500
H889        H  0.17790547  0.67458487  0.86443681     0.08500
H890        H  0.11470270  0.63902074  0.86064901     0.05300
C891        C  0.45147958  0.61693106  0.89358092    -0.20600
C892        C  0.41284959  0.58723030  0.88020211    -0.07100
C893        C  0.39751392  0.53728391  0.87944761     0.13700
C894        C  0.42041969  0.51877727  0.89234912    -0.20600
C895        C  0.45774091  0.54838480  0.90615218    -0.07100
C896        C  0.47394758  0.59816622  0.90655724     0.13700
C897        C  0.01544636  0.63182097  0.92036578    -0.24000
H898        H  0.46385081  0.65511703  0.89415746     0.15000
H899        H  0.40852479  0.98059593  0.89192524     0.15100
C900        C  0.35802354  0.50315112  0.86478195    -0.23900
H901        H  0.02553473  0.66997699  0.91762893     0.05300
H902        H  0.04712140  0.62819417  0.91671971     0.07600
H903        H  0.00553698  0.62327676  0.93752780     0.08500
H904        H  0.36658440  0.51628727  0.84788041     0.08500
H905        H  0.32353160  0.49991992  0.86973860     0.08500
H906        H  0.35291363  0.96626878  0.86547637     0.05300
C907        C  0.28595374  0.77377430  0.76635957    -0.20600
C908        C  0.25886797  0.74212410  0.78303576    -0.07100
C909        C  0.21181608  0.73286017  0.78691112     0.13700
C910        C  0.19355208  0.75623641  0.77424874    -0.20600
C911        C  0.22105728  0.78896217  0.75793726    -0.07100
C912        C  0.26819109  0.79808054  0.75400377     0.13700
C913        C  0.30197588  0.83452523  0.73779005    -0.24000
H914        H  0.32217400  0.78120824  0.76353195     0.15000
H915        H  0.15730056  0.74871049  0.77704372     0.15100
C916        C  0.18010052  0.69733496  0.80391535    -0.23900
H917        H  0.33536716  0.86088390  0.74601553     0.05300
H918        H  0.28763498  0.85541254  0.72980075     0.08500
H919        H  0.31110462  0.81597186  0.72524051     0.08500
H920        H  0.19497705  0.71039289  0.82015563     0.08500
H921        H  0.17713043  0.66182959  0.80111736     0.08500
H922        H  0.14344622  0.69217198  0.80367501     0.05300
C923        C  0.07392238  0.81157700  0.77795316    -0.20600
C924        C  0.07748813  0.78593094  0.76054833    -0.07100
C925        C  0.03949970  0.73856786  0.75677531     0.13700
C926        C  0.49811755  0.71958401  0.76968089    -0.20600
C927        C  0.49410451  0.74595495  0.78665785    -0.07100
C928        C  0.03274548  0.79247857  0.79096125     0.13700
C929        C  0.03021128  0.82295814  0.80869033    -0.24000
H930        H  0.10335358  0.84705092  0.78132990     0.15000
H931        H  0.46886462  0.68350581  0.76671269     0.15100
C932        C  0.04312296  0.70666021  0.74008881    -0.23900
H933        H  0.06255272  0.85935399  0.80894749     0.05300
H934        H  0.02750102  0.80573428  0.82457134     0.08500
H935        H  0.99861865  0.82745367  0.80630324     0.08500
H936        H  0.07649736  0.70535720  0.74251354     0.08500
H937        H  0.04263538  0.71995191  0.72366888     0.08500
H938        H  0.51258774  0.66921467  0.74120761     0.05300
C939        C  0.28811706  0.00225038  0.77357398    -0.20600
C940        C  0.25841489  0.51460730  0.78490776    -0.07100
C941        C  0.20825126  0.98498538  0.78368400     0.13700
C942        C  0.18893941  0.94369256  0.77088262    -0.20600
C943        C  0.21861110  0.93052901  0.76004052    -0.07100
C944        C  0.26876111  0.96003610  0.76139816     0.13700
C945        C  0.30179287  0.94622302  0.75062302    -0.24000
H946        H  0.32659680  0.52506180  0.77469212     0.15000
H947        H  0.15060696  0.92207323  0.76907454     0.15100
C948        C  0.17524783  0.49752080  0.79548489    -0.23900
H949        H  0.33996802  0.97317718  0.75342449     0.05300
H950        H  0.29567981  0.94315912  0.73299082     0.08500
H951        H  0.29494264  0.91124187  0.75733059     0.08500
H952        H  0.18218467  0.53357189  0.79020397     0.08500
H953        H  0.18120282  0.49784167  0.81308848     0.08500
H954        H  0.13702561  0.97098516  0.79232092     0.05300
O955        O  0.91384364  0.25817038  0.86228534    -0.78700
C956        C  0.89008955  0.10967659  0.86720480     0.82300
O957        O  0.90936692  0.20276119  0.78950617    -0.79900
O958        O  0.77516704  0.05290288  0.81863806    -0.81300
O959        O  0.74469294  0.15740113  0.86176933    -0.81100
O960        O  0.84673451  0.26120519  0.86010812    -0.79800
Zn961      Zn  0.90256136  0.20071066  0.84431278     1.55700
O962        O  0.74461372  0.08818814  0.86350409    -0.81200
Cd963      Cd  0.80272274  0.20106252  0.84261263     1.59700
Cd964      Cd  0.83935483  0.16866178  0.80063915     1.59600
O965        O  0.77728792  0.22213329  0.81697872    -0.81100
O966        O  0.83773329  0.16808267  0.83293006    -1.91700
Cd967      Cd  0.80186618  0.10033009  0.84396420     1.59900
O968        O  0.80504999  0.20366650  0.78789301    -0.81100
O969        O  0.84668203  0.08428318  0.86138437    -0.79800
C970        C  0.94914305  0.22385177  0.79942892     0.82800
C971        C  0.88927892  0.27811536  0.86684223     0.82400
O972        O  0.91463098  0.15434373  0.86225628    -0.78700
C973        C  0.72653345  0.11420424  0.86844599     0.83200
O974        O  0.95109369  0.22580605  0.81991897    -0.78800
C975        C  0.78145109  0.22121267  0.79665812     0.83400
C976        C  0.78058663  0.05791488  0.79829536     0.83700
O977        O  0.80492969  0.09889475  0.78914029    -0.81200
C978        C  0.67073312  0.33768492  0.71436179     0.86200
C979        C  0.69566088  0.38796494  0.72499743    -0.54000
C980        C  0.69632179  0.38646151  0.74689860     0.09200
C981        C  0.67250495  0.33546372  0.75646346     0.20100
C982        C  0.69754763  0.31335554  0.72364460    -0.54700
C983        C  0.69878054  0.31235896  0.74558055     0.09300
C984        C  0.62101854  0.31197518  0.72510415    -0.54300
C985        C  0.62167404  0.30937708  0.74704726     0.09800
H986        H  0.71166196  0.42238011  0.71681723     0.14400
H987        H  0.67350258  0.33472609  0.77433120     0.00100
H988        H  0.71337905  0.29736187  0.71362855     0.14700
H989        H  0.58822353  0.29809042  0.71595702     0.14400
C990        C  0.50060933  0.99782832  0.95208892     0.86200
C991        C  0.97637000  0.02356446  0.94149257    -0.54000
C992        C  0.97961199  0.02623295  0.91957106     0.09200
C993        C  0.50578008  0.00186924  0.90992877     0.20100
C994        C  0.97662540  0.44797954  0.94087416    -0.54700
C995        C  0.97965048  0.45038412  0.91892460     0.09300
C996        C  0.55196847  0.02314512  0.94297030    -0.54300
C997        C  0.55473798  0.02564999  0.92102827     0.09800
H998        H  0.95694938  0.03720615  0.95051340     0.14400
H999        H  0.50771075  0.00352946  0.89205830     0.00100
H1000       H  0.95919897  0.41322347  0.94878613     0.14700
H1001       H  0.58355003  0.03728936  0.95301190     0.14400
O1002       O  0.90334483  0.48606952  0.52899365    -0.78700
C1003       C  0.55200067  0.10914178  0.53273322     0.82300
O1004       O  0.95475824  0.02713033  0.45630065    -0.79900
O1005       O  0.60720772  0.05300209  0.48253289    -0.81300
O1006       O  0.50888731  0.41981236  0.53038959    -0.81100
O1007       O  0.90434605  0.41755209  0.53030328    -0.79800
Zn1008     Zn  0.96183903  0.03099236  0.51080835     1.55700
O1009       O  0.57795745  0.48878580  0.52801580    -0.81200
Cd1010     Cd  0.96254395  0.43109834  0.51178196     1.59700
Cd1011     Cd  0.99123031  0.49431121  0.46762342     1.59600
O1012       O  0.93719058  0.38073998  0.48763109    -0.81100
O1013       O  0.99395453  0.49768635  0.49982449    -1.91700
Cd1014     Cd  0.56224633  0.03185333  0.50881521     1.59900
O1015       O  0.95513994  0.42329837  0.45716613    -0.81100
O1016       O  0.57799161  0.09247978  0.52602995    -0.79800
C1017       C  0.93788795  0.05052669  0.46569722     0.82800
C1018       C  0.88496834  0.44229266  0.53514657     0.82400
O1019       O  0.50736477  0.08841420  0.52866082    -0.78700
C1020       C  0.55306911  0.44572713  0.53493690     0.83200
O1021       O  0.93932448  0.05571955  0.48604825    -0.78800
C1022       C  0.93646939  0.38302662  0.46718869     0.83400
C1023       C  0.60094294  0.05057565  0.46225205     0.83700
O1024       O  0.55938831  0.03031218  0.45389093    -0.81200
C1025       C  0.83041000  0.16428414  0.38156044     0.86200
C1026       C  0.77916506  0.13526520  0.39074746    -0.54000
C1027       C  0.77646590  0.13121316  0.41265037     0.09200
C1028       C  0.82544864  0.15820265  0.42365938     0.20100
C1029       C  0.85127978  0.21345640  0.39313099    -0.54700
C1030       C  0.84746232  0.21022433  0.41516073     0.09300
C1031       C  0.85861372  0.14235767  0.39161614    -0.54300
C1032       C  0.85585645  0.13881833  0.41341784     0.09800
H1033       H  0.74746185  0.12047011  0.38074222     0.14400
H1034       H  0.82302277  0.15522358  0.44145560     0.00100
H1035       H  0.86879374  0.24825685  0.38529811     0.14700
H1036       H  0.88007282  0.13152682  0.38232945     0.14400
C1037       C  0.66133827  0.32883750  0.61862584     0.86200
C1038       C  0.63759970  0.27859521  0.60795087    -0.54000
C1039       C  0.63567843  0.27963519  0.58601069     0.09200
C1040       C  0.66000061  0.33094133  0.57653294     0.20100
C1041       C  0.71113894  0.35527224  0.60811574    -0.54700
C1042       C  0.71059721  0.35708697  0.58624564     0.09300
C1043       C  0.63399813  0.35251157  0.60917176    -0.54300
C1044       C  0.63348461  0.35393228  0.58722078     0.09800
H1045       H  0.62546344  0.24487499  0.61624880     0.14400
H1046       H  0.65974905  0.33223513  0.55866252     0.00100
H1047       H  0.74414310  0.37107874  0.61725444     0.14700
H1048       H  0.61881913  0.36911294  0.61915333     0.14400
O1049       O  0.67938906  0.25293733  0.19571053    -0.78700
C1050       C  0.55734571  0.27564816  0.20167359     0.82300
O1051       O  0.63427720  0.25830944  0.12322304    -0.79900
O1052       O  0.60613704  0.38444087  0.15054664    -0.81300
O1053       O  0.74605092  0.42349760  0.19482619    -0.81100
O1054       O  0.74939278  0.32120324  0.19471418    -0.79800
Zn1055     Zn  0.63425589  0.26484099  0.17783558     1.55700
O1056       O  0.67872258  0.42609847  0.19379459    -0.81200
Cd1057     Cd  0.73365754  0.36548306  0.17643842     1.59700
Cd1058     Cd  0.66606301  0.32843759  0.13408952     1.59600
O1059       O  0.78108967  0.39219609  0.15086301    -0.81100
O1060       O  0.66609973  0.33004213  0.16633625    -1.91700
Cd1061     Cd  0.63266898  0.36453104  0.17659592     1.59900
O1062       O  0.73480643  0.36433128  0.12181440    -0.81100
O1063       O  0.57515728  0.31976962  0.19628038    -0.79800
C1064       C  0.61442745  0.21843402  0.13351133     0.82800
C1065       C  0.72341444  0.27749518  0.20068807     0.82400
O1066       O  0.57631205  0.25106094  0.19573484    -0.78700
C1067       C  0.72210665  0.44366274  0.19974395     0.83200
O1068       O  0.61216551  0.21681944  0.15396381    -0.78800
C1069       C  0.77573744  0.38774640  0.13055470     0.83400
C1070       C  0.60858892  0.38116206  0.13018194     0.83700
O1071       O  0.62995035  0.36116763  0.12154519    -0.81200
C1072       C  0.50018185  0.99988241  0.04831666     0.86200
C1073       C  0.51997339  0.46902575  0.05785613    -0.54000
C1074       C  0.51780592  0.46518041  0.07979025     0.09200
C1075       C  0.49785776  0.99439008  0.09043085     0.20100
C1076       C  0.95005920  0.48009996  0.05814903    -0.54700
C1077       C  0.94869054  0.47704470  0.07998794     0.09300
C1078       C  0.52991065  0.04896112  0.05978768    -0.54300
C1079       C  0.52982162  0.04591856  0.08179892     0.09800
H1080       H  0.53611002  0.45298675  0.04808508     0.14400
H1081       H  0.49695824  0.99185174  0.10821823     0.00100
H1082       H  0.91822730  0.46991605  0.04866793     0.14700
H1083       H  0.54873095  0.08367364  0.05194491     0.14400
C1084       C  0.83121496  0.16204165  0.28539471     0.86200
C1085       C  0.88210629  0.18664891  0.27578956    -0.54000
C1086       C  0.88415732  0.19031655  0.25384899     0.09200
C1087       C  0.83453185  0.16687427  0.24328635     0.20100
C1088       C  0.80670938  0.18823104  0.27543655    -0.54700
C1089       C  0.80953349  0.19199861  0.25347534     0.09300
C1090       C  0.80549554  0.11249009  0.27418958    -0.54300
C1091       C  0.80721329  0.11523442  0.25229841     0.09800
H1092       H  0.91359085  0.19873888  0.28571355     0.14400
H1093       H  0.83588922  0.16878598  0.22542009     0.00100
H1094       H  0.78741661  0.20102043  0.28506919     0.14700
H1095       H  0.78643313  0.07772061  0.28204898     0.14400
C1096       C  0.87372381  0.40561073  0.09178786    -0.20600
C1097       C  0.90319460  0.45574848  0.09212932    -0.07100
C1098       C  0.88829567  0.48380269  0.10364304     0.13700
C1099       C  0.84673838  0.46059209  0.11633435    -0.20600
C1100       C  0.81850542  0.41032011  0.11673874    -0.07100
C1101       C  0.83152437  0.38246196  0.10402015     0.13700
C1102       C  0.80175132  0.32834814  0.10384324    -0.24000
H1103       H  0.88401871  0.38447246  0.08200086     0.15000
H1104       H  0.83566563  0.48188725  0.12558344     0.15100
C1105       C  0.91346605  0.53781931  0.10196574    -0.23900
H1106       H  0.81792991  0.31219253  0.09347078     0.05300
H1107       H  0.76552099  0.31710255  0.09758007     0.08500
H1108       H  0.79861343  0.31393266  0.12043496     0.08500
H1109       H  0.94485656  0.05274952  0.09099520     0.08500
H1110       H  0.92504968  0.55372956  0.11817184     0.08500
H1111       H  0.88831429  0.54880559  0.09550299     0.05300
C1112       C  0.61832024  0.17108114  0.10300426    -0.20600
C1113       C  0.59397495  0.17291297  0.12136967    -0.07100
C1114       C  0.55113857  0.13125028  0.12780429     0.13700
C1115       C  0.53276615  0.08991671  0.11510570    -0.20600
C1116       C  0.55556493  0.08869656  0.09605921    -0.07100
C1117       C  0.60076616  0.12902786  0.09077844     0.13700
C1118       C  0.63306876  0.12837216  0.07340132    -0.24000
H1119       H  0.65229818  0.20224613  0.09857590     0.15000
H1120       H  0.49957016  0.05872587  0.11997447     0.15100
C1121       C  0.52323459  0.13045662  0.14745807    -0.23900
H1122       H  0.66915425  0.14069204  0.08016378     0.05300
H1123       H  0.63636115  0.15308770  0.06007522     0.08500
H1124       H  0.62066106  0.09193859  0.06698048     0.08500
H1125       H  0.51453316  0.15973163  0.14628332     0.08500
H1126       H  0.54432531  0.13494842  0.16221697     0.08500
H1127       H  0.48904192  0.09587331  0.14917529     0.05300
C1128       C  0.53797260  0.38816809  0.12085515    -0.20600
C1129       C  0.58537517  0.40094698  0.11628554    -0.07100
C1130       C  0.60974653  0.43306955  0.09906191     0.13700
C1131       C  0.58655955  0.45300804  0.08738554    -0.20600
C1132       C  0.53927736  0.44086586  0.09216585    -0.07100
C1133       C  0.51421405  0.40680504  0.10873741     0.13700
C1134       C  0.96175420  0.38736920  0.11292072    -0.24000
H1135       H  0.51913237  0.36265887  0.13377849     0.15000
H1136       H  0.60598389  0.97912141  0.07469555     0.15100
C1137       C  0.66069577  0.44781626  0.09344400    -0.23900
H1138       H  0.94748035  0.35836424  0.12533632     0.05300
H1139       H  0.94172041  0.37174865  0.09787084     0.08500
H1140       H  0.95498304  0.41581604  0.11880607     0.08500
H1141       H  0.66277959  0.41599991  0.08813742     0.08500
H1142       H  0.68389612  0.46392676  0.10769571     0.08500
H1143       H  0.67512878  0.97512419  0.08023434     0.05300
C1144       C  0.75927647  0.18939153  0.22275334    -0.20600
C1145       C  0.78763825  0.21489966  0.24037561    -0.07100
C1146       C  0.79617148  0.26198580  0.24430660     0.13700
C1147       C  0.77499733  0.28141293  0.23092308    -0.20600
C1148       C  0.74500787  0.25498708  0.21393381    -0.07100
C1149       C  0.73736288  0.20847745  0.20965018     0.13700
C1150       C  0.70766875  0.17948027  0.19084557    -0.24000
H1151       H  0.75410333  0.15415864  0.21918365     0.15000
H1152       H  0.78143417  0.31740140  0.23389950     0.15100
C1153       C  0.82918087  0.29311658  0.26181405    -0.23900
H1154       H  0.70783046  0.14514227  0.18922008     0.05300
H1155       H  0.72215744  0.20041593  0.17568086     0.08500
H1156       H  0.66995336  0.17033134  0.19305036     0.08500
H1157       H  0.86438406  0.29553148  0.26005995     0.08500
H1158       H  0.81377195  0.27838235  0.27787898     0.08500
H1159       H  0.83518777  0.33030668  0.26102508     0.05300
C1160       C  0.81428988  0.05798499  0.22842974    -0.20600
C1161       C  0.78469669  0.07187772  0.23866104    -0.07100
C1162       C  0.73465903  0.04356077  0.23640082     0.13700
C1163       C  0.71551965  0.00254345  0.22335618    -0.20600
C1164       C  0.74507957  0.48839622  0.21288733    -0.07100
C1165       C  0.79551915  0.51688093  0.21554916     0.13700
C1166       C  0.83042226  0.50528541  0.20480559    -0.24000
H1167       H  0.85240493  0.07863867  0.23112369     0.15000
H1168       H  0.67704554  0.98092867  0.22172158     0.15100
C1169       C  0.70132738  0.05598486  0.24800520    -0.23900
H1170       H  0.86815359  0.53320441  0.20790168     0.05300
H1171       H  0.82519433  0.50335273  0.18710131     0.08500
H1172       H  0.82553729  0.47070091  0.21113977     0.08500
H1173       H  0.70930633  0.09267441  0.24345694     0.08500
H1174       H  0.70560056  0.05442150  0.26565656     0.08500
H1175       H  0.66330662  0.03054576  0.24408640     0.05300
C1176       C  0.93312781  0.18759636  0.22356595    -0.20600
C1177       C  0.92970212  0.21291870  0.24115359    -0.07100
C1178       C  0.96852664  0.25961369  0.24541785     0.13700
C1179       C  0.50961656  0.27882081  0.23229538    -0.20600
C1180       C  0.51344846  0.25266484  0.21518212    -0.07100
C1181       C  0.97453776  0.20637667  0.21073380     0.13700
C1182       C  0.97551625  0.17726234  0.19199645    -0.24000
H1183       H  0.90313115  0.15282416  0.21972154     0.15000
H1184       H  0.53918469  0.31460829  0.23546468     0.15100
C1185       C  0.96637322  0.29075743  0.26290511    -0.23900
H1186       H  0.94100856  0.14311291  0.19022727     0.05300
H1187       H  0.00377854  0.16772479  0.19441124     0.08500
H1188       H  0.98251776  0.19827880  0.17682174     0.08500
H1189       H  0.96602030  0.27558590  0.27899307     0.08500
H1190       H  0.93406197  0.29391832  0.26085974     0.08500
H1191       H  0.99789338  0.32769060  0.26237898     0.05300
C1192       C  0.85013243  0.20634461  0.34448262    -0.20600
C1193       C  0.83121635  0.16342155  0.35666562    -0.07100
C1194       C  0.81301668  0.11947745  0.34510064     0.13700
C1195       C  0.81371052  0.12025792  0.32245868    -0.20600
C1196       C  0.83184837  0.16313241  0.31027811    -0.07100
C1197       C  0.85160275  0.20708383  0.32187088     0.13700
C1198       C  0.87536160  0.25650061  0.31145982    -0.24000
H1199       H  0.86467054  0.24066046  0.35220205     0.15000
H1200       H  0.80060143  0.08630456  0.31461241     0.15100
C1201       C  0.79257817  0.07063122  0.35604393    -0.23900
H1202       H  0.85512224  0.27486167  0.31568394     0.05300
H1203       H  0.87828691  0.25678809  0.29381033     0.08500
H1204       H  0.91238229  0.27816383  0.31764496     0.08500
H1205       H  0.76142522  0.06267315  0.36628233     0.08500
H1206       H  0.81998997  0.06818137  0.36570349     0.08500
H1207       H  0.77957640  0.04095220  0.34422722     0.05300
C1208       C  0.67581913  0.05367501  0.45205803    -0.20600
C1209       C  0.64376119  0.07012832  0.44833677    -0.07100
C1210       C  0.65433276  0.10551937  0.43230780     0.13700
C1211       C  0.69761518  0.12439378  0.42072063    -0.20600
C1212       C  0.73017541  0.10828663  0.42466844    -0.07100
C1213       C  0.71827491  0.07148293  0.44018470     0.13700
C1214       C  0.74825226  0.04838052  0.44345685    -0.24000
H1215       H  0.66704451  0.02591935  0.46415912     0.15000
H1216       H  0.70654072  0.15250937  0.40880932     0.15100
C1217       C  0.62106784  0.12467966  0.42801833    -0.23900
H1218       H  0.73227483  0.01866138  0.45551808     0.05300
H1219       H  0.78417125  0.07497133  0.44934001     0.08500
H1220       H  0.75049242  0.03272666  0.42797709     0.08500
H1221       H  0.61581184  0.14021760  0.44297970     0.08500
H1222       H  0.58599128  0.09517852  0.42243965     0.08500
H1223       H  0.63551047  0.15325476  0.41540258     0.05300
C1224       C  0.88823487  0.25371285  0.44874565    -0.20600
C1225       C  0.86518429  0.25313779  0.42948781    -0.07100
C1226       C  0.86168331  0.29424472  0.42403892     0.13700
C1227       C  0.88667338  0.33630832  0.43622082    -0.20600
C1228       C  0.91210881  0.33764217  0.45475190    -0.07100
C1229       C  0.91204730  0.29527972  0.46131956     0.13700
C1230       C  0.93853264  0.29379740  0.48103573    -0.24000
H1231       H  0.88874420  0.22177915  0.45392059     0.15000
H1232       H  0.88454412  0.36784705  0.43167834     0.15100
C1233       C  0.82926569  0.29431343  0.40660804    -0.23900
H1234       H  0.93752989  0.25884621  0.48272256     0.05300
H1235       H  0.92194281  0.29856343  0.49575925     0.08500
H1236       H  0.47665187  0.32258128  0.47994564     0.08500
H1237       H  0.80487468  0.25802143  0.40017626     0.08500
H1238       H  0.85103497  0.31878806  0.39328961     0.08500
H1239       H  0.80595245  0.30732473  0.41332693     0.05300
C1240       C  0.94232141  0.12244606  0.44884494    -0.20600
C1241       C  0.91646893  0.07259455  0.45239940    -0.07100
C1242       C  0.87279340  0.04420431  0.44168711     0.13700
C1243       C  0.85494720  0.06676105  0.42829776    -0.20600
C1244       C  0.87911600  0.11687591  0.42585091    -0.07100
C1245       C  0.92486669  0.14471927  0.43496294     0.13700
C1246       C  0.95708043  0.19646723  0.42842347    -0.24000
H1247       H  0.97718581  0.14355785  0.45616346     0.15000
H1248       H  0.82220116  0.04519305  0.41955759     0.15100
C1249       C  0.84476353  0.99033295  0.44461405    -0.23900
H1250       H  0.99170060  0.21290904  0.43709196     0.05300
H1251       H  0.94007457  0.21810472  0.43164550     0.08500
H1252       H  0.96463786  0.19841869  0.41089586     0.08500
H1253       H  0.83570189  0.98126550  0.46189982     0.08500
H1254       H  0.86649949  0.47435559  0.43895369     0.08500
H1255       H  0.81107465  0.47383781  0.43532998     0.05300
C1256       C  0.76720452  0.35005997  0.56192639    -0.20600
C1257       C  0.75510772  0.37989634  0.57322582    -0.07100
C1258       C  0.78604155  0.43020458  0.57244475     0.13700
C1259       C  0.82776452  0.44945691  0.55975113    -0.20600
C1260       C  0.83998511  0.41959314  0.54816952    -0.07100
C1261       C  0.80876402  0.36889743  0.54925548     0.13700
C1262       C  0.81783345  0.33390021  0.53691654    -0.24000
H1263       H  0.74464151  0.31153477  0.56353671     0.15000
H1264       H  0.85142041  0.48810465  0.55921529     0.15100
C1265       C  0.77561870  0.46361760  0.58522012    -0.23900
H1266       H  0.78788795  0.29627918  0.53872933     0.05300
H1267       H  0.85050871  0.33472900  0.54299327     0.08500
H1268       H  0.82173683  0.34304720  0.51948376     0.08500
H1269       H  0.77639762  0.45650033  0.60265689     0.08500
H1270       H  0.73995410  0.45819308  0.58099691     0.08500
H1271       H  0.80255578  0.50195993  0.58209654     0.05300
C1272       C  0.54749313  0.15593698  0.56320469    -0.20600
C1273       C  0.57391323  0.15327678  0.54590319    -0.07100
C1274       C  0.62002225  0.19276706  0.54149955     0.13700
C1275       C  0.63825237  0.23358726  0.55457001    -0.20600
C1276       C  0.61299650  0.23542244  0.57256282    -0.07100
C1277       C  0.56649395  0.19600314  0.57678867     0.13700
C1278       C  0.53554569  0.19596510  0.59497747    -0.24000
H1279       H  0.51200020  0.12582454  0.56643183     0.15000
H1280       H  0.67276010  0.26411832  0.55073369     0.15100
C1281       C  0.64985769  0.19292606  0.52276837    -0.23900
H1282       H  0.49831933  0.16536522  0.59383229     0.05300
H1283       H  0.53391201  0.22947077  0.59455597     0.08500
H1284       H  0.54956060  0.19233740  0.61069267     0.08500
H1285       H  0.62950784  0.18624292  0.50757116     0.08500
H1286       H  0.65981734  0.16481498  0.52517692     0.08500
H1287       H  0.68362776  0.22794190  0.52106261     0.05300
C1288       C  0.54677378  0.39073665  0.56446399    -0.20600
C1289       C  0.57543640  0.42474081  0.54877179    -0.07100
C1290       C  0.62343472  0.43577646  0.54607321     0.13700
C1291       C  0.64089518  0.41184638  0.55888058    -0.20600
C1292       C  0.61234918  0.37821824  0.57469729    -0.07100
C1293       C  0.56449812  0.36747870  0.57751212     0.13700
C1294       C  0.53079092  0.32971457  0.59324090    -0.24000
H1295       H  0.50997565  0.38210417  0.56649031     0.15000
H1296       H  0.67720031  0.41937328  0.55646017     0.15100
C1297       C  0.65612550  0.47134382  0.52932136    -0.23900
H1298       H  0.49393308  0.32378379  0.59200972     0.05300
H1299       H  0.54258430  0.34054404  0.61000451     0.08500
H1300       H  0.52896526  0.29517636  0.58974965     0.08500
H1301       H  0.66264392  0.50787246  0.53306743     0.08500
H1302       H  0.63982523  0.46044629  0.51313182     0.08500
H1303       H  0.69147879  0.47342274  0.52882115     0.05300
C1304       C  0.97395360  0.45602286  0.98915239    -0.20600
C1305       C  0.49931122  0.99892834  0.97701914    -0.07100
C1306       C  0.52300082  0.04286160  0.98867154     0.13700
C1307       C  0.52309343  0.04192435  0.01129458    -0.20600
C1308       C  0.49903822  0.99896095  0.02341791    -0.07100
C1309       C  0.97306904  0.45515542  0.01180349     0.13700
C1310       C  0.94363540  0.40642403  0.02271029    -0.24000
H1311       H  0.95340219  0.42211176  0.98126708     0.15000
H1312       H  0.54198662  0.07603425  0.01914958     0.15100
C1313       C  0.54749625  0.09196961  0.97788457    -0.23900
H1314       H  0.92607467  0.37692076  0.01086608     0.05300
H1315       H  0.91446070  0.40509856  0.03254473     0.08500
H1316       H  0.96618277  0.39729252  0.03278116     0.08500
H1317       H  0.52125829  0.09716187  0.96868588     0.08500
H1318       H  0.57731148  0.09729904  0.96733917     0.08500
H1319       H  0.56328444  0.12161617  0.98973942     0.05300
C1320       C  0.68739121  0.37714650  0.67688943    -0.20600
C1321       C  0.66786882  0.33495539  0.68960983    -0.07100
C1322       C  0.64566746  0.29012751  0.67865949     0.13700
C1323       C  0.64381334  0.28931735  0.65610850    -0.20600
C1324       C  0.66377534  0.33152495  0.64338108    -0.07100
C1325       C  0.68574039  0.37634259  0.65433602     0.13700
C1326       C  0.70814726  0.42513778  0.64333611    -0.24000
H1327       H  0.70449105  0.41211793  0.68409122     0.15000
H1328       H  0.62583411  0.25432018  0.64892754     0.15100
C1329       C  0.62308100  0.24133628  0.68966691    -0.23900
H1330       H  0.74657685  0.44628381  0.64765616     0.05300
H1331       H  0.69006890  0.44474329  0.64900445     0.08500
H1332       H  0.70611740  0.42440921  0.62565926     0.08500
H1333       H  0.62461977  0.24207801  0.70735743     0.08500
H1334       H  0.64132147  0.22177328  0.68415439     0.08500
H1335       H  0.58475335  0.22014423  0.68518129     0.05300
C1336       C  0.96076232  0.35344456  0.87849219    -0.20600
C1337       C  0.91117025  0.32246965  0.88001369    -0.07100
C1338       C  0.88425506  0.33426512  0.89424792     0.13700
C1339       C  0.90792211  0.37612165  0.90668295    -0.20600
C1340       C  0.95755036  0.40678453  0.90523117    -0.07100
C1341       C  0.98431062  0.39510012  0.89093605     0.13700
C1342       C  0.53781843  0.42417063  0.88886547    -0.24000
H1343       H  0.98163759  0.34486802  0.86759975     0.15000
H1344       H  0.88750157  0.38523466  0.91759134     0.15100
C1345       C  0.83088769  0.30263329  0.89694659    -0.23900
H1346       H  0.54787108  0.44007674  0.87244458     0.05300
H1347       H  0.55336610  0.40064929  0.89170805     0.08500
H1348       H  0.55380456  0.45309281  0.90070690     0.08500
H1349       H  0.82206226  0.26561521  0.90158284     0.08500
H1350       H  0.81256390  0.30178970  0.88172449     0.08500
H1351       H  0.81654213  0.31613614  0.90967427     0.05300
C1352       C  0.67841998  0.06097738  0.89869748    -0.20600
C1353       C  0.68329354  0.09355159  0.88235452    -0.07100
C1354       C  0.64609853  0.10412524  0.87917470     0.13700
C1355       C  0.60528922  0.08176470  0.89237277    -0.20600
C1356       C  0.60034040  0.04911030  0.90865823    -0.07100
C1357       C  0.63738650  0.03820068  0.91175514     0.13700
C1358       C  0.63423861  0.50060699  0.92755479    -0.24000
H1359       H  0.70659979  0.05243791  0.90106589     0.15000
H1360       H  0.57672384  0.08965659  0.88986204     0.15100
C1361       C  0.64801410  0.13736683  0.86142489    -0.23900
H1362       H  0.64033382  0.47397272  0.91891741     0.05300
H1363       H  0.59902828  0.47994760  0.93558190     0.08500
H1364       H  0.66221639  0.51818951  0.94002450     0.08500
H1365       H  0.65327179  0.12457791  0.84565173     0.08500
H1366       H  0.67764809  0.17451247  0.86432004     0.08500
H1367       H  0.61444863  0.13885564  0.86053445     0.05300
C1368       C  0.95131127  0.11683343  0.89358791    -0.20600
C1369       C  0.91264941  0.08712462  0.88022646    -0.07100
C1370       C  0.89727320  0.03716742  0.87949122     0.13700
C1371       C  0.92018785  0.01866391  0.89238963    -0.20600
C1372       C  0.95755144  0.04828809  0.90617163    -0.07100
C1373       C  0.97378409  0.09807335  0.90656141     0.13700
C1374       C  0.51531458  0.13173403  0.92035142    -0.24000
H1375       H  0.96370949  0.15502613  0.89415145     0.15000
H1376       H  0.90877771  0.48071722  0.89187326     0.15100
C1377       C  0.85773121  0.00302186  0.86485006    -0.23900
H1378       H  0.52541034  0.16989016  0.91760843     0.05300
H1379       H  0.54697405  0.12808907  0.91669258     0.07600
H1380       H  0.50544169  0.12321316  0.93751816     0.08500
H1381       H  0.86626221  0.01611047  0.84794110     0.08500
H1382       H  0.82326828  0.99984520  0.86981723     0.08500
H1383       H  0.85324445  0.46641465  0.86539377     0.05300
C1384       C  0.78609508  0.27395487  0.76634433    -0.20600
C1385       C  0.75899282  0.24222751  0.78299557    -0.07100
C1386       C  0.71189688  0.23285370  0.78684441     0.13700
C1387       C  0.69361167  0.25622489  0.77419407    -0.20600
C1388       C  0.72112484  0.28902514  0.75790820    -0.07100
C1389       C  0.76829108  0.29822405  0.75398624     0.13700
C1390       C  0.80205305  0.33469794  0.73777622    -0.24000
H1391       H  0.82234305  0.28145772  0.76353301     0.15000
H1392       H  0.65733308  0.24862969  0.77697553     0.15100
C1393       C  0.68015673  0.19720654  0.80380561    -0.23900
H1394       H  0.83540505  0.36111698  0.74600873     0.05300
H1395       H  0.78764492  0.35550191  0.72976521     0.08500
H1396       H  0.81126478  0.31618309  0.72524041     0.08500
H1397       H  0.69495693  0.21019129  0.82006328     0.08500
H1398       H  0.67727211  0.16174968  0.80097300     0.08500
H1399       H  0.64347480  0.19197014  0.80354805     0.05300
C1400       C  0.57390956  0.31151954  0.77798463    -0.20600
C1401       C  0.57750829  0.28585025  0.76059866    -0.07100
C1402       C  0.53956648  0.23845188  0.75684927     0.13700
C1403       C  0.99817949  0.21945505  0.76975269    -0.20600
C1404       C  0.99412256  0.24585470  0.78670463    -0.07100
C1405       C  0.53273004  0.29240908  0.79099162     0.13700
C1406       C  0.53015176  0.32290567  0.80870050    -0.24000
H1407       H  0.60330933  0.34702536  0.78134170     0.15000
H1408       H  0.96895420  0.18335424  0.76679891     0.15100
C1409       C  0.54324373  0.20653334  0.74018597    -0.23900
H1410       H  0.56247213  0.35931709  0.80894923     0.05300
H1411       H  0.52744746  0.30571817  0.82459059     0.08500
H1412       H  0.49853887  0.32736005  0.80629737     0.08500
H1413       H  0.57664762  0.20529211  0.74262260     0.08500
H1414       H  0.54273884  0.21977720  0.72375764     0.08500
H1415       H  0.01274122  0.16907031  0.74131920     0.05300
C1416       C  0.78811935  0.50226981  0.77353608    -0.20600
C1417       C  0.75838449  0.01458087  0.78492796    -0.07100
C1418       C  0.70827830  0.48501935  0.78368423     0.13700
C1419       C  0.68893224  0.44371517  0.77088911    -0.20600
C1420       C  0.71857714  0.43053862  0.76003228    -0.07100
C1421       C  0.76873108  0.46004461  0.76136737     0.13700
C1422       C  0.80173464  0.44620895  0.75058293    -0.24000
H1423       H  0.82659222  0.02504093  0.77475086     0.15000
H1424       H  0.65059437  0.42209092  0.76910170     0.15100
C1425       C  0.67519006  0.99748068  0.79546189    -0.23900
H1426       H  0.83991754  0.47316790  0.75336297     0.05300
H1427       H  0.79557646  0.44310377  0.73295406     0.08500
H1428       H  0.79489776  0.41124477  0.75730510     0.08500
H1429       H  0.68213465  0.03353295  0.79017851     0.08500
H1430       H  0.68110400  0.99779282  0.81306882     0.08500
H1431       H  0.63707586  0.47103886  0.79235433     0.05300
O1432       O  0.91386914  0.75822357  0.86226532    -0.78700
C1433       C  0.89026415  0.60976757  0.86718811     0.82300
O1434       O  0.90935526  0.70283468  0.78948727    -0.79900
O1435       O  0.77528318  0.55290958  0.81862486    -0.81300
O1436       O  0.74479621  0.65731712  0.86181488    -0.81100
O1437       O  0.84672896  0.76119686  0.86009548    -0.79800
Zn1438     Zn  0.90262586  0.70076498  0.84429958     1.55700
O1439       O  0.74471211  0.58810074  0.86351392    -0.81200
Cd1440     Cd  0.80273360  0.70100421  0.84262760     1.59700
Cd1441     Cd  0.83935947  0.66867443  0.80063965     1.59600
O1442       O  0.77715854  0.72198424  0.81701533    -0.81100
O1443       O  0.83778415  0.66808008  0.83293002    -1.91700
Cd1444     Cd  0.80197676  0.60032022  0.84395876     1.59900
O1445       O  0.80498511  0.70362611  0.78792102    -0.81100
O1446       O  0.84686228  0.58434401  0.86136352    -0.79800
C1447       C  0.94914509  0.72393961  0.79939871     0.82800
C1448       C  0.88928281  0.77814558  0.86682263     0.82400
O1449       O  0.91477128  0.65444296  0.86224767    -0.78700
C1450       C  0.72663923  0.61411227  0.86847753     0.83200
O1451       O  0.95112379  0.72588311  0.81988899    -0.78800
C1452       C  0.78133154  0.72110224  0.79669411     0.83400
C1453       C  0.78065078  0.55793531  0.79828034     0.83700
O1454       O  0.80495421  0.59892205  0.78912719    -0.81200
C1455       C  0.67083607  0.83771154  0.71435331     0.86200
C1456       C  0.69578459  0.88798391  0.72499665    -0.54000
C1457       C  0.69638464  0.88646235  0.74689871     0.09200
C1458       C  0.67249370  0.83545607  0.75645687     0.20100
C1459       C  0.69757247  0.81332145  0.72365704    -0.54700
C1460       C  0.69874974  0.81230934  0.74559412     0.09300
C1461       C  0.62109252  0.81204532  0.72506975    -0.54300
C1462       C  0.62168583  0.80942686  0.74701447     0.09800
H1463       H  0.71182668  0.92240598  0.71682086     0.14400
H1464       H  0.67344694  0.83470734  0.77432528     0.00100
H1465       H  0.71340164  0.79730753  0.71365256     0.14700
H1466       H  0.58832858  0.79821354  0.71590373     0.14400
C1467       C  0.50065512  0.49783004  0.95208848     0.86200
C1468       C  0.97648497  0.52361765  0.94148132    -0.54000
C1469       C  0.97976909  0.52630549  0.91956161     0.09200
C1470       C  0.50590008  0.50189456  0.90993062     0.20100
C1471       C  0.97660643  0.94797424  0.94088017    -0.54700
C1472       C  0.97959135  0.95037106  0.91893060     0.09300
C1473       C  0.55203054  0.52309884  0.94298933    -0.54300
C1474       C  0.55483574  0.52562082  0.92104870     0.09800
H1475       H  0.95706601  0.53727302  0.95049395     0.14400
H1476       H  0.50786531  0.50357023  0.89206080     0.00100
H1477       H  0.95922517  0.91322040  0.94879420     0.14700
H1478       H  0.58359429  0.53720265  0.95304122     0.14400
O1479       O  0.90334796  0.98611031  0.52891100    -0.78700
C1480       C  0.55203037  0.60921042  0.53273541     0.82300
O1481       O  0.95491194  0.52722840  0.45635090    -0.79900
O1482       O  0.60726136  0.55287677  0.48260041    -0.81300
O1483       O  0.50894735  0.91988189  0.53038795    -0.81100
O1484       O  0.90439948  0.91761805  0.53027187    -0.79800
Zn1485     Zn  0.96182325  0.53095116  0.51086866     1.55700
O1486       O  0.57803825  0.98880273  0.52792549    -0.81200
Cd1487     Cd  0.96259705  0.93113381  0.51176259     1.59700
Cd1488     Cd  0.99116774  0.99429228  0.46757760     1.59600
O1489       O  0.93725118  0.88073420  0.48762823    -0.81100
O1490       O  0.99395295  0.99769915  0.49977807    -1.91700
Cd1491     Cd  0.56225233  0.53184599  0.50887023     1.59900
O1492       O  0.95514063  0.92325037  0.45715126    -0.81100
O1493       O  0.57803235  0.59255835  0.52603336    -0.79800
C1494       C  0.93795219  0.55053649  0.46575263     0.82800
C1495       C  0.88499500  0.94235058  0.53508374     0.82400
O1496       O  0.50737924  0.58842893  0.52868922    -0.78700
C1497       C  0.55315431  0.94578340  0.53489351     0.83200
O1498       O  0.93928398  0.55563672  0.48610764    -0.78800
C1499       C  0.93650646  0.88299211  0.46718533     0.83400
C1500       C  0.60101424  0.55045122  0.46231820     0.83700
O1501       O  0.55946582  0.53024953  0.45395294    -0.81200
C1502       C  0.83045464  0.66419607  0.38159751     0.86200
C1503       C  0.77921156  0.63508437  0.39078303    -0.54000
C1504       C  0.77651103  0.63103246  0.41268789     0.09200
C1505       C  0.82548409  0.65810468  0.42369791     0.20100
C1506       C  0.85124201  0.71335547  0.39317173    -0.54700
C1507       C  0.84742057  0.71012047  0.41520111     0.09300
C1508       C  0.85873291  0.64235543  0.39165569    -0.54300
C1509       C  0.85596544  0.63880877  0.41345740     0.09800
H1510       H  0.74750955  0.62023201  0.38077546     0.14400
H1511       H  0.82305600  0.65511838  0.44149375     0.00100
H1512       H  0.86875237  0.74815756  0.38534177     0.14700
H1513       H  0.88024294  0.63158305  0.38237269     0.14400
C1514       C  0.66149654  0.82894056  0.61861002     0.86200
C1515       C  0.63768659  0.77870369  0.60792513    -0.54000
C1516       C  0.63573632  0.77976352  0.58598525     0.09200
C1517       C  0.66009568  0.83107992  0.57651818     0.20100
C1518       C  0.71128138  0.85533135  0.60808491    -0.54700
C1519       C  0.71070436  0.85716724  0.58621629     0.09300
C1520       C  0.63419456  0.85268009  0.60917860    -0.54300
C1521       C  0.63364934  0.85411922  0.58722753     0.09800
H1522       H  0.62553558  0.74497268  0.61621581     0.14400
H1523       H  0.65982191  0.83238992  0.55864838     0.00100
H1524       H  0.74430020  0.87110479  0.61721216     0.14700
H1525       H  0.61906306  0.86930328  0.61917523     0.14400
O1526       O  0.67948196  0.75294220  0.19571852    -0.78700
C1527       C  0.55737341  0.77559881  0.20165077     0.82300
O1528       O  0.63434683  0.75829606  0.12321009    -0.79900
O1529       O  0.60629609  0.88447431  0.15053719    -0.81300
O1530       O  0.74614369  0.92349833  0.19480113    -0.81100
O1531       O  0.74947571  0.82122750  0.19472495    -0.79800
Zn1532     Zn  0.63433798  0.76481477  0.17783315     1.55700
O1533       O  0.67875837  0.92599638  0.19380693    -0.81200
Cd1534     Cd  0.73374011  0.86546564  0.17642714     1.59700
Cd1535     Cd  0.66615105  0.82841575  0.13407900     1.59600
O1536       O  0.78116762  0.89211647  0.15085142    -0.81100
O1537       O  0.66618083  0.83000763  0.16632722    -1.91700
Cd1538     Cd  0.63273846  0.86447834  0.17658461     1.59900
O1539       O  0.73488458  0.86424104  0.12180362    -0.81100
O1540       O  0.57518173  0.81971133  0.19624302    -0.79800
C1541       C  0.61453749  0.71842534  0.13350103     0.82800
C1542       C  0.72350343  0.77752334  0.20070150     0.82400
O1543       O  0.57635898  0.75101706  0.19572708    -0.78700
C1544       C  0.72215715  0.94360626  0.19973896     0.83200
O1545       O  0.61230203  0.71681197  0.15395446    -0.78800
C1546       C  0.77581437  0.88764250  0.13054404     0.83400
C1547       C  0.60876956  0.88122889  0.13017229     0.83700
O1548       O  0.63010936  0.86121814  0.12152991    -0.81200
C1549       C  0.50008920  0.49988290  0.04831305     0.86200
C1550       C  0.52012901  0.96907989  0.05786020    -0.54000
C1551       C  0.51795724  0.96522984  0.07979449     0.09200
C1552       C  0.49777742  0.49440360  0.09042698     0.20100
C1553       C  0.95014031  0.98003495  0.05814948    -0.54700
C1554       C  0.94876584  0.97696646  0.07998721     0.09300
C1555       C  0.52988172  0.54895639  0.05978008    -0.54300
C1556       C  0.52979761  0.54591901  0.08179063     0.09800
H1557       H  0.53630126  0.95307574  0.04808977     0.14400
H1558       H  0.49688355  0.49186755  0.10821425     0.00100
H1559       H  0.91830479  0.96982657  0.04866709     0.14700
H1560       H  0.54874485  0.58366393  0.05193586     0.14400
C1561       C  0.83132448  0.66208281  0.28542059     0.86200
C1562       C  0.88221404  0.68674574  0.27580448    -0.54000
C1563       C  0.88422993  0.69038478  0.25386270     0.09200
C1564       C  0.83460223  0.66692679  0.24331155     0.20100
C1565       C  0.80676973  0.68823421  0.27547374    -0.54700
C1566       C  0.80958779  0.69203073  0.25351164     0.09300
C1567       C  0.80561671  0.61253294  0.27421108    -0.54300
C1568       C  0.80731523  0.61528508  0.25231970     0.09800
H1569       H  0.91373024  0.69891622  0.28571733     0.14400
H1570       H  0.83596782  0.66884185  0.22544544     0.00100
H1571       H  0.78743155  0.70094977  0.28511719     0.14700
H1572       H  0.78653558  0.57776276  0.28206975     0.14400
C1573       C  0.87381008  0.90550598  0.09178429    -0.20600
C1574       C  0.90326614  0.95564740  0.09212431    -0.07100
C1575       C  0.88834253  0.98369271  0.10362751     0.13700
C1576       C  0.84679036  0.96047566  0.11631869    -0.20600
C1577       C  0.81857811  0.91020464  0.11672910    -0.07100
C1578       C  0.83160502  0.88234924  0.10401310     0.13700
C1579       C  0.80183168  0.82823537  0.10383286    -0.24000
H1580       H  0.88411645  0.88437369  0.08199967     0.15000
H1581       H  0.83570165  0.98176585  0.12556174     0.15100
C1582       C  0.91347393  0.03770538  0.10193616    -0.23900
H1583       H  0.81801381  0.81208321  0.09346040     0.05300
H1584       H  0.76560347  0.81699258  0.09756747     0.08500
H1585       H  0.79868696  0.81381443  0.12042390     0.08500
H1586       H  0.94484450  0.55285229  0.09102217     0.08500
H1587       H  0.92503893  0.05363985  0.11813922     0.08500
H1588       H  0.88830106  0.04865260  0.09546249     0.05300
C1589       C  0.61840011  0.67105459  0.10299236    -0.20600
C1590       C  0.59407388  0.67290517  0.12136124    -0.07100
C1591       C  0.55122225  0.63126563  0.12779743     0.13700
C1592       C  0.53280761  0.58993780  0.11509559    -0.20600
C1593       C  0.55558695  0.58869404  0.09604757    -0.07100
C1594       C  0.60080644  0.62899936  0.09076416     0.13700
C1595       C  0.63308211  0.62831346  0.07338106    -0.24000
H1596       H  0.65238798  0.70220466  0.09856244     0.15000
H1597       H  0.49959105  0.55877165  0.11996332     0.15100
C1598       C  0.52334432  0.63049402  0.14745700    -0.23900
H1599       H  0.66916547  0.64060055  0.08013863     0.05300
H1600       H  0.63639124  0.65304142  0.06005753     0.08500
H1601       H  0.62063913  0.59187506  0.06695782     0.08500
H1602       H  0.51467775  0.65979412  0.14628931     0.08500
H1603       H  0.54443805  0.63496013  0.16221215     0.08500
H1604       H  0.48913447  0.59592861  0.14917571     0.05300
C1605       C  0.53815166  0.88820540  0.12083876    -0.20600
C1606       C  0.58557505  0.90104429  0.11628520    -0.07100
C1607       C  0.60997398  0.93324539  0.09909015     0.13700
C1608       C  0.58677013  0.95316417  0.08741156    -0.20600
C1609       C  0.53945774  0.94094761  0.09217210    -0.07100
C1610       C  0.51438799  0.90684363  0.10872788     0.13700
C1611       C  0.96192112  0.88736989  0.11290194    -0.24000
H1612       H  0.51930066  0.86265031  0.13374566     0.15000
H1613       H  0.60576469  0.47892090  0.07465329     0.15100
C1614       C  0.66096691  0.94809798  0.09351014    -0.23900
H1615       H  0.94764841  0.85833731  0.12530461     0.05300
H1616       H  0.94190781  0.87177554  0.09784520     0.08500
H1617       H  0.95512343  0.91578940  0.11880143     0.08500
H1618       H  0.66314038  0.91633574  0.08819631     0.08500
H1619       H  0.68409873  0.96419290  0.10778293     0.08500
H1620       H  0.67484467  0.47479775  0.08015021     0.05300
C1621       C  0.75958450  0.68956419  0.22270573    -0.20600
C1622       C  0.78768352  0.71493807  0.24041605    -0.07100
C1623       C  0.79598295  0.76192035  0.24442391     0.13700
C1624       C  0.77483271  0.78135332  0.23102797    -0.20600
C1625       C  0.74510079  0.75503895  0.21395264    -0.07100
C1626       C  0.73771043  0.70866260  0.20958697     0.13700
C1627       C  0.70834309  0.67984246  0.19067621    -0.24000
H1628       H  0.75458709  0.65442556  0.21907453     0.15000
H1629       H  0.78107845  0.81725337  0.23406152     0.15100
C1630       C  0.82871524  0.79295700  0.26202786    -0.23900
H1631       H  0.70866794  0.64559714  0.18900160     0.05300
H1632       H  0.72299385  0.70098580  0.17557291     0.08500
H1633       H  0.67056013  0.67053965  0.19278464     0.08500
H1634       H  0.86397934  0.79546776  0.26037794     0.08500
H1635       H  0.81309163  0.77809915  0.27804878     0.08500
H1636       H  0.83465740  0.83012454  0.26125858     0.05300
C1637       C  0.81431151  0.55791401  0.22850018    -0.20600
C1638       C  0.78476458  0.57193722  0.23867606    -0.07100
C1639       C  0.73473211  0.54376187  0.23635182     0.13700
C1640       C  0.71555425  0.50274829  0.22330146    -0.20600
C1641       C  0.74509090  0.98832800  0.21288507    -0.07100
C1642       C  0.79553341  0.01694197  0.21548695     0.13700
C1643       C  0.83047024  0.00547306  0.20468626    -0.24000
H1644       H  0.85241395  0.57845882  0.23124256     0.15000
H1645       H  0.67708296  0.48124085  0.22162037     0.15100
C1646       C  0.70144487  0.55632045  0.24790506    -0.23900
H1647       H  0.86819024  0.03347762  0.20774111     0.05300
H1648       H  0.82513239  0.00350216  0.18698905     0.08500
H1649       H  0.82572931  0.97093754  0.21101007     0.08500
H1650       H  0.70955452  0.59304469  0.24334546     0.08500
H1651       H  0.70562893  0.55474185  0.26556293     0.08500
H1652       H  0.66342245  0.53096899  0.24395306     0.05300
C1653       C  0.93325044  0.68748136  0.22364911    -0.20600
C1654       C  0.92974674  0.71295839  0.24115171    -0.07100
C1655       C  0.96845865  0.75976363  0.24531899     0.13700
C1656       C  0.50954837  0.77893850  0.23219682    -0.20600
C1657       C  0.51347633  0.75264039  0.21516815    -0.07100
C1658       C  0.97465038  0.70623091  0.21080974     0.13700
C1659       C  0.97569867  0.67694545  0.19216107    -0.24000
H1660       H  0.90331963  0.65261236  0.21987848     0.15000
H1661       H  0.53903252  0.81481336  0.23529686     0.15100
C1662       C  0.96615457  0.79103484  0.26270013    -0.23900
H1663       H  0.94124530  0.64271245  0.19045420     0.05300
H1664       H  0.00404505  0.66754936  0.19463534     0.08500
H1665       H  0.98261060  0.69776814  0.17693316     0.08500
H1666       H  0.96570536  0.77599870  0.27883362     0.08500
H1667       H  0.93381892  0.79411308  0.26054992     0.08500
H1668       H  0.99764487  0.82798487  0.26214548     0.05300
C1669       C  0.85009236  0.70629679  0.34452505    -0.20600
C1670       C  0.83128500  0.66336657  0.35669914    -0.07100
C1671       C  0.81321758  0.61945339  0.34512098     0.13700
C1672       C  0.81393597  0.62026596  0.32247737    -0.20600
C1673       C  0.83196344  0.66314544  0.31030696    -0.07100
C1674       C  0.85160389  0.70707164  0.32191265     0.13700
C1675       C  0.87528317  0.75649924  0.31151436    -0.24000
H1676       H  0.86451049  0.74059336  0.35225060     0.15000
H1677       H  0.80095611  0.58634098  0.31462031     0.15100
C1678       C  0.79289853  0.57060837  0.35605198    -0.23900
H1679       H  0.85493371  0.77475847  0.31571562     0.05300
H1680       H  0.87829779  0.75681660  0.29386731     0.08500
H1681       H  0.91226725  0.77823981  0.31773044     0.08500
H1682       H  0.76174136  0.56257093  0.36630411     0.08500
H1683       H  0.82036826  0.56822734  0.36569563     0.08500
H1684       H  0.77994256  0.54094718  0.34422781     0.05300
C1685       C  0.67590343  0.55353132  0.45213036    -0.20600
C1686       C  0.64383496  0.56997182  0.44840215    -0.07100
C1687       C  0.65439042  0.60532955  0.43235818     0.13700
C1688       C  0.69765115  0.62417174  0.42075800    -0.20600
C1689       C  0.73022119  0.60808172  0.42470967    -0.07100
C1690       C  0.71835237  0.57132253  0.44024836     0.13700
C1691       C  0.74836384  0.54826191  0.44354293    -0.24000
H1692       H  0.66714685  0.52580662  0.46424521     0.15000
H1693       H  0.70655990  0.65226375  0.40883614     0.15100
C1694       C  0.62113781  0.62450544  0.42806923    -0.23900
H1695       H  0.73241541  0.51858523  0.45562541     0.05300
H1696       H  0.78428488  0.57488969  0.44941023     0.08500
H1697       H  0.75060455  0.53256016  0.42807726     0.08500
H1698       H  0.61590883  0.64007013  0.44302822     0.08500
H1699       H  0.58604943  0.59500910  0.42249983     0.08500
H1700       H  0.63557634  0.65306521  0.41544661     0.05300
C1701       C  0.88818592  0.75362825  0.44878754    -0.20600
C1702       C  0.86513804  0.75304078  0.42952612    -0.07100
C1703       C  0.86168170  0.79416519  0.42405949     0.13700
C1704       C  0.88669780  0.83624227  0.43622931    -0.20600
C1705       C  0.91213571  0.83758896  0.45476106    -0.07100
C1706       C  0.91205049  0.79522201  0.46134251     0.13700
C1707       C  0.93858037  0.79376695  0.48104747    -0.24000
H1708       H  0.88867275  0.72169070  0.45397520     0.15000
H1709       H  0.88459254  0.86778788  0.43167417     0.15100
C1710       C  0.82929633  0.79425027  0.40661649    -0.23900
H1711       H  0.93755912  0.75880817  0.48274306     0.05300
H1712       H  0.92204328  0.79858171  0.49577732     0.08500
H1713       H  0.47667968  0.82251956  0.47994156     0.08500
H1714       H  0.80486342  0.75795228  0.40020122     0.08500
H1715       H  0.85109282  0.81867641  0.39329016     0.08500
H1716       H  0.80602540  0.80733150  0.41331676     0.05300
C1717       C  0.94237615  0.62246287  0.44892492    -0.20600
C1718       C  0.91654454  0.57260358  0.45245408    -0.07100
C1719       C  0.87291796  0.54420522  0.44170807     0.13700
C1720       C  0.85508133  0.56676348  0.42831647    -0.20600
C1721       C  0.87922815  0.61688108  0.42589138    -0.07100
C1722       C  0.92494253  0.64473769  0.43503422     0.13700
C1723       C  0.95714582  0.69650377  0.42851940    -0.24000
H1724       H  0.97721153  0.64358006  0.45626864     0.15000
H1725       H  0.82235912  0.54519813  0.41955827     0.15100
C1726       C  0.84493568  0.49032272  0.44459795    -0.23900
H1727       H  0.99174023  0.71295024  0.43720915     0.05300
H1728       H  0.94010531  0.71811081  0.43173460     0.08500
H1729       H  0.96475789  0.69849650  0.41099605     0.08500
H1730       H  0.83581520  0.48118936  0.46187511     0.08500
H1731       H  0.86626614  0.97430256  0.43896433     0.08500
H1732       H  0.81086720  0.97385440  0.43537237     0.05300
C1733       C  0.76723923  0.85013513  0.56185568    -0.20600
C1734       C  0.75518707  0.87997318  0.57318193    -0.07100
C1735       C  0.78612500  0.93028058  0.57240384     0.13700
C1736       C  0.82782727  0.94953084  0.55969822    -0.20600
C1737       C  0.84001301  0.91966314  0.54809951    -0.07100
C1738       C  0.80876937  0.86897313  0.54916665     0.13700
C1739       C  0.81777967  0.83398838  0.53678307    -0.24000
H1740       H  0.74466554  0.81160982  0.56345728     0.15000
H1741       H  0.85149912  0.98817655  0.55916949     0.15100
C1742       C  0.77573423  0.96369365  0.58519730    -0.23900
H1743       H  0.78780222  0.79637742  0.53857327     0.05300
H1744       H  0.85043458  0.83474537  0.54283926     0.08500
H1745       H  0.82168777  0.84320728  0.51935784     0.08500
H1746       H  0.77656105  0.95657724  0.60263066     0.08500
H1747       H  0.74005830  0.95826868  0.58099805     0.08500
H1748       H  0.80266237  0.00203615  0.58206758     0.05300
C1749       C  0.54753144  0.65605630  0.56318623    -0.20600
C1750       C  0.57393853  0.65338488  0.54588205    -0.07100
C1751       C  0.62002393  0.69289528  0.54145799     0.13700
C1752       C  0.63826094  0.73372636  0.55452415    -0.20600
C1753       C  0.61302801  0.73556089  0.57252748    -0.07100
C1754       C  0.56652933  0.69614105  0.57675911     0.13700
C1755       C  0.53557025  0.69612989  0.59493622    -0.24000
H1756       H  0.51204757  0.62593852  0.56642379     0.15000
H1757       H  0.67275569  0.76426381  0.55067663     0.15100
C1758       C  0.64982451  0.69306297  0.52271014    -0.23900
H1759       H  0.49836097  0.66549070  0.59380906     0.05300
H1760       H  0.53388086  0.72960323  0.59447288     0.08500
H1761       H  0.54960563  0.69259637  0.61066195     0.08500
H1762       H  0.62943296  0.68635410  0.50752403     0.08500
H1763       H  0.65981524  0.66497233  0.52510866     0.08500
H1764       H  0.68357607  0.72809121  0.52098961     0.05300
C1765       C  0.54691813  0.89089122  0.56446025    -0.20600
C1766       C  0.57555094  0.92484126  0.54874291    -0.07100
C1767       C  0.62356152  0.93590409  0.54605422     0.13700
C1768       C  0.64104150  0.91201313  0.55887745    -0.20600
C1769       C  0.61252090  0.87843119  0.57471490    -0.07100
C1770       C  0.56468002  0.86771473  0.57754067     0.13700
C1771       C  0.53103119  0.83008527  0.59333144    -0.24000
H1772       H  0.51012137  0.88225905  0.56649129     0.15000
H1773       H  0.67734336  0.91953421  0.55645264     0.15100
C1774       C  0.65625275  0.97146818  0.52930153    -0.23900
H1775       H  0.49415757  0.82410733  0.59209008     0.05300
H1776       H  0.54286682  0.84109828  0.61007592     0.08500
H1777       H  0.52923324  0.79552757  0.58992495     0.08500
H1778       H  0.66273725  0.00798992  0.53303633     0.08500
H1779       H  0.63997361  0.96054536  0.51310953     0.08500
H1780       H  0.69162187  0.97358021  0.52881581     0.05300
C1781       C  0.97399782  0.95602966  0.98915668    -0.20600
C1782       C  0.49931076  0.49892350  0.97701715    -0.07100
C1783       C  0.52299582  0.54285581  0.98866981     0.13700
C1784       C  0.52303202  0.54192019  0.01129234    -0.20600
C1785       C  0.49894800  0.49895881  0.02341468    -0.07100
C1786       C  0.97316513  0.95515875  0.01180765     0.13700
C1787       C  0.94379866  0.90641764  0.02271523    -0.24000
H1788       H  0.95343957  0.92211731  0.98127352     0.15000
H1789       H  0.54190344  0.57603143  0.01914689     0.15100
C1790       C  0.54755403  0.59196398  0.97788291    -0.23900
H1791       H  0.92625521  0.87691073  0.01087160     0.05300
H1792       H  0.91461419  0.90504068  0.03256060     0.08500
H1793       H  0.96639480  0.89733102  0.03277492     0.08500
H1794       H  0.52135485  0.59719412  0.96867244     0.08500
H1795       H  0.57737359  0.59725765  0.96734943     0.08500
H1796       H  0.56335115  0.62161014  0.98973769     0.05300
C1797       C  0.68763647  0.87720467  0.67688349    -0.20600
C1798       C  0.66803706  0.83500257  0.68959878    -0.07100
C1799       C  0.64581947  0.79018354  0.67864082     0.13700
C1800       C  0.64399515  0.78939171  0.65608846    -0.20600
C1801       C  0.66397611  0.83160905  0.64336681    -0.07100
C1802       C  0.68599332  0.87641878  0.65432943     0.13700
C1803       C  0.70845944  0.92522481  0.64333738    -0.24000
H1804       H  0.70478244  0.91217147  0.68409036     0.15000
H1805       H  0.62601073  0.75440080  0.64890156     0.15100
C1806       C  0.62317656  0.74138280  0.68964182    -0.23900
H1807       H  0.74689590  0.94631656  0.64765175     0.05300
H1808       H  0.69043782  0.94487748  0.64901679     0.08500
H1809       H  0.70640994  0.92450949  0.62566136     0.08500
H1810       H  0.62466290  0.74210981  0.70733336     0.08500
H1811       H  0.64141076  0.72180330  0.68414365     0.08500
H1812       H  0.58485977  0.72021514  0.68513583     0.05300
C1813       C  0.96076651  0.85342267  0.87852520    -0.20600
C1814       C  0.91115454  0.82250427  0.87999410    -0.07100
C1815       C  0.88420714  0.83434369  0.89418954     0.13700
C1816       C  0.90786050  0.87618175  0.90663741    -0.20600
C1817       C  0.95750447  0.90677613  0.90523884    -0.07100
C1818       C  0.98429903  0.89505060  0.89098717     0.13700
C1819       C  0.53782510  0.92403911  0.88899335    -0.24000
H1820       H  0.98167147  0.84481731  0.86766518     0.15000
H1821       H  0.88741964  0.88533315  0.91751491     0.15100
C1822       C  0.83081789  0.80278062  0.89683565    -0.23900
H1823       H  0.54801312  0.93995466  0.87257902     0.05300
H1824       H  0.55328952  0.90045920  0.89188021     0.08500
H1825       H  0.55377084  0.95295431  0.90084228     0.08500
H1826       H  0.82190924  0.76574292  0.90148210     0.08500
H1827       H  0.81258741  0.80197854  0.88158976     0.08500
H1828       H  0.81644483  0.81631593  0.90953685     0.05300
C1829       C  0.67845687  0.56078449  0.89869680    -0.20600
C1830       C  0.68339889  0.59345347  0.88238643    -0.07100
C1831       C  0.64626885  0.60413856  0.87923955     0.13700
C1832       C  0.60546517  0.58180523  0.89243902    -0.20600
C1833       C  0.60045274  0.54906869  0.90869324    -0.07100
C1834       C  0.63742348  0.53803834  0.91175731     0.13700
C1835       C  0.63429819  0.00086885  0.92758760    -0.24000
H1836       H  0.70658021  0.55215362  0.90103867     0.15000
H1837       H  0.57694696  0.58977646  0.88995134     0.15100
C1838       C  0.64823743  0.63747049  0.86152101    -0.23900
H1839       H  0.64051649  0.97428012  0.91898268     0.05300
H1840       H  0.59908318  0.98013418  0.93560270     0.08500
H1841       H  0.66223983  0.01855610  0.94006406     0.08500
H1842       H  0.65346290  0.62471742  0.84573201     0.08500
H1843       H  0.67790720  0.67458691  0.86443733     0.08500
H1844       H  0.61470443  0.63902384  0.86064926     0.05300
C1845       C  0.95148244  0.61693218  0.89358169    -0.20600
C1846       C  0.91284961  0.58723082  0.88020431    -0.07100
C1847       C  0.89751150  0.53728374  0.87945097     0.13700
C1848       C  0.92041831  0.51877734  0.89235189    -0.20600
C1849       C  0.95774283  0.54838569  0.90615328    -0.07100
C1850       C  0.97395141  0.59816751  0.90655746     0.13700
C1851       C  0.51543957  0.63181926  0.92036706    -0.24000
H1852       H  0.96385543  0.65511859  0.89415745     0.15000
H1853       H  0.90852823  0.98059860  0.89192283     0.15100
C1854       C  0.85801717  0.50314966  0.86478727    -0.23900
H1855       H  0.52552762  0.66997524  0.91763041     0.05300
H1856       H  0.54711582  0.62819358  0.91672229     0.07600
H1857       H  0.50552692  0.62327372  0.93752871     0.08500
H1858       H  0.86657505  0.51628258  0.84788521     0.08500
H1859       H  0.82352714  0.49992139  0.86974512     0.08500
H1860       H  0.85292112  0.96627271  0.86547204     0.05300
C1861       C  0.78595758  0.77377759  0.76636180    -0.20600
C1862       C  0.75887073  0.74212505  0.78303708    -0.07100
C1863       C  0.71181740  0.73285783  0.78691132     0.13700
C1864       C  0.69355318  0.75623388  0.77424898    -0.20600
C1865       C  0.72105928  0.78896181  0.75793835    -0.07100
C1866       C  0.76819430  0.79808280  0.75400572     0.13700
C1867       C  0.80197943  0.83452874  0.73779248    -0.24000
H1868       H  0.82217879  0.78121367  0.76353497     0.15000
H1869       H  0.65730071  0.74870582  0.77704318     0.15100
C1870       C  0.68010065  0.69732904  0.80391418    -0.23900
H1871       H  0.83536940  0.86088846  0.74601850     0.05300
H1872       H  0.78763752  0.85541457  0.72980264     0.08500
H1873       H  0.81111069  0.81597668  0.72524329     0.08500
H1874       H  0.69497453  0.71038487  0.82015502     0.08500
H1875       H  0.67713317  0.66182510  0.80111529     0.08500
H1876       H  0.64344555  0.69216391  0.80367307     0.05300
C1877       C  0.57392116  0.81157528  0.77795189    -0.20600
C1878       C  0.57748778  0.78592881  0.76054746    -0.07100
C1879       C  0.53949907  0.73856603  0.75677415     0.13700
C1880       C  0.99811911  0.71958523  0.76968267    -0.20600
C1881       C  0.99410669  0.74595596  0.78665989    -0.07100
C1882       C  0.53274345  0.79247738  0.79095943     0.13700
C1883       C  0.53020870  0.82295727  0.80868822    -0.24000
H1884       H  0.60335245  0.84704907  0.78132880     0.15000
H1885       H  0.96886626  0.68350691  0.76671462     0.15100
C1886       C  0.54312312  0.70665796  0.74008812    -0.23900
H1887       H  0.56255032  0.85935299  0.80894552     0.05300
H1888       H  0.52749758  0.80573353  0.82456935     0.08500
H1889       H  0.49861639  0.82745312  0.80630065     0.08500
H1890       H  0.57649699  0.70535433  0.74251363     0.08500
H1891       H  0.54263725  0.71994973  0.72366799     0.08500
H1892       H  0.01258807  0.66921668  0.74120855     0.05300
C1893       C  0.78811549  0.00224774  0.77357526    -0.20600
C1894       C  0.75841773  0.51460978  0.78490834    -0.07100
C1895       C  0.70824921  0.98498445  0.78368326     0.13700
C1896       C  0.68893794  0.94369115  0.77088219    -0.20600
C1897       C  0.71861019  0.93052662  0.76004124    -0.07100
C1898       C  0.76876013  0.96003295  0.76139989     0.13700
C1899       C  0.80179239  0.94621850  0.75062635    -0.24000
H1900       H  0.82659938  0.52505894  0.77469558     0.15000
H1901       H  0.65060560  0.92207220  0.76907345     0.15100
C1902       C  0.67525121  0.49753051  0.79548167    -0.23900
H1903       H  0.83996739  0.97317232  0.75342837     0.05300
H1904       H  0.79568108  0.94315359  0.73299402     0.08500
H1905       H  0.79494080  0.91123759  0.75733480     0.08500
H1906       H  0.68219185  0.53358244  0.79019993     0.08500
H1907       H  0.68120314  0.49785156  0.81308554     0.08500
H1908       H  0.63702326  0.97098521  0.79231886     0.05300
loop_ 
_geom_bond_atom_site_label_1 
_geom_bond_atom_site_label_2 
_geom_bond_distance 
_geom_bond_site_symmetry_2 
_ccdc_geom_bond_type 
O1           C17   1.278       .  A
O1           Zn7   2.035       .  S
C2           O18   1.278       .  A
C2           O15   1.274       .  A
C2          C415   1.494       .  S
O3           C16   1.275       .  A
O3          Cd10   2.073       .  S
O4           C22   1.274       .  A
O4          Cd13   2.064       .  S
O5           C19   1.271       .  A
O5           Cd9   2.058       .  S
O6           C17   1.271       .  A
O6           Cd9   2.053       .  S
Zn7          O18   2.043       .  S
Zn7          O20   2.029       .  S
Zn7          O12   1.949       .  S
O8           C19   1.275       .  A
O8          Cd13   2.077       .  S
Cd9          O11   2.053       .  S
Cd9          O12   1.993       .  S
Cd10         O14   2.088       .  S
Cd10         O23   2.072       .  S
Cd10         O12   2.006       .  S
O11          C21   1.272       .  A
O12         Cd13   1.999       .  S
Cd13         O15   2.069       .  S
O14          C21   1.277       .  A
C16          O20   1.275       .  A
C16         C450   1.482       .  S
C17         C383   1.486       .  S
C19         C399   1.483       .  S
C21         C431   1.479       .  S
C22          O23   1.275       .  A
C22         C463   1.469       .  S
C24          C25   1.551       .  S
C24          C30   1.539       .  S
C24          C28   1.539       .  S
C24         C367   1.541       .  S
C25          H32   1.080       .  S
C25          C26   1.362       .  D
C26          C27   1.533       .  S
C26         C466   1.478       .  S
C27          C31   1.540       .  S
C27          C29   1.538       .  S
C27          H33   1.111       .  S
C28          H34   1.086       .  S
C28          C29   1.364       .  D
C29         C434   1.485       .  S
C30          H35   1.085       .  S
C30          C31   1.366       .  D
C31         C447   1.491       .  S
C36          C42   1.541   1_565  S
C36         C991   1.540   1_465  S
C36        C1471   1.557   1_455  S
C36         C351   1.550   1_455  S
C37         C990   1.540   1_545  S
C37          H44   1.086       .  S
C37          C38   1.365       .  D
C38         C993   1.535       .  S
C38         C418   1.484       .  S
C39          C43   1.536       .  S
C39         C992   1.535   1_455  S
C39        C1472   1.532   1_445  S
C39          H45   1.111       .  S
C40        C1467   1.556       .  S
C40          H46   1.080       .  S
C40          C41   1.366       .  D
C41        C1470   1.532       .  S
C41         C386   1.487       .  S
C42          H47   1.085       .  S
C42          C43   1.365       .  D
C43         C402   1.485       .  S
O48          C64   1.277       .  A
O48        Zn531   2.039       .  S
C49          O65   1.276       .  A
C49          O62   1.272       .  A
C49         C319   1.480       .  S
O50          C63   1.272       .  A
O50        Cd534   2.055   1_545  S
O51          C69   1.273       .  A
O51         Cd60   2.056       .  S
O52          C66   1.274       .  A
O52       Cd1010   2.062   1_455  S
O53          C64   1.271       .  A
O53         Cd56   2.054       .  S
Zn54         O67   2.023       .  S
Zn54        O525   2.039   1_545  S
Zn54       O1019   2.027       .  S
Zn54        O536   1.952   1_545  S
O55          C66   1.273       .  A
O55        Cd537   2.066       .  S
Cd56         O58   2.061       .  S
Cd56       O1006   2.062       .  S
Cd56         O59   1.989       .  S
Cd57         O61   2.083       .  S
Cd57        O527   2.055       .  S
Cd57       O1501   2.085       .  S
Cd57         O59   2.004       .  S
O58          C68   1.273       .  A
O59        Zn531   1.952       .  S
O59       Cd1491   1.994       .  S
Cd60         O62   2.057       .  S
Cd60        O532   2.066   1_545  S
Cd60       O1490   1.993   1_445  S
O61          C68   1.277       .  A
C63          O67   1.274       .  A
C63         C287   1.466       .  S
C64         C306   1.492       .  S
O65       Zn1008   2.027   1_455  S
C66         C335   1.482       .  S
C68         C274   1.486       .  S
C69          O70   1.276       .  A
C69         C255   1.475       .  S
O70       Cd1488   2.085   1_445  S
C71          C72   1.543       .  S
C71          C77   1.535       .  S
C71          C75   1.554       .  S
C71         C239   1.547       .  S
C72          H79   1.086       .  S
C72          C73   1.365       .  D
C73          C74   1.536       .  S
C73         C258   1.491       .  S
C74          C78   1.541       .  S
C74          C76   1.540       .  S
C74          H80   1.108       .  S
C75          H81   1.079       .  S
C75          C76   1.373       .  D
C76         C271   1.499       .  S
C77          H82   1.086       .  S
C77          C78   1.357       .  D
C78         C290   1.478       .  S
C83          C84   1.552       .  S
C83          C89   1.540       .  S
C83          C87   1.535       .  S
C83         C370   1.541       .  S
C84          H91   1.076       .  S
C84          C85   1.365       .  D
C85          C86   1.538       .  S
C85         C322   1.492       .  S
C86          C90   1.536       .  S
C86          C88   1.541       .  S
C86          H92   1.111       .  S
C87          H93   1.086       .  S
C87          C88   1.360       .  D
C88         C303   1.481       .  S
C89          H94   1.084       .  S
C89          C90   1.365       .  D
C90         C338   1.486       .  S
O95         C111   1.273       .  A
O95        Zn101   2.016       .  S
C96         O112   1.275       .  A
C96         O109   1.275       .  A
C96         C226   1.483       .  S
O97         C110   1.274       .  A
O97        Cd104   2.071       .  S
O98         C116   1.276       .  A
O98        Cd107   2.074       .  S
O99         C113   1.271       .  A
O99        Cd103   2.054       .  S
O100        C111   1.274       .  A
O100       Cd103   2.067       .  S
Zn101       O112   2.024       .  S
Zn101       O114   2.005       .  S
Zn101       O106   1.942       .  S
O102        C113   1.277       .  A
O102       Cd107   2.086       .  S
Cd103       O105   2.066       .  S
Cd103       O106   1.994       .  S
Cd104       O108   2.064       .  S
Cd104       O117   2.073       .  S
Cd104       O106   2.004       .  S
O105        C115   1.273       .  A
O106       Cd107   2.002       .  S
Cd107       O109   2.075       .  S
O108        C115   1.273       .  A
C110        O114   1.272       .  A
C110        C159   1.480       .  S
C111        C194   1.478       .  S
C113        C210   1.494       .  S
C115        C146   1.468       .  S
C116        O117   1.275       .  A
C116        C175   1.478       .  S
C118        C124   1.554   1_565  S
C118        C596   1.542       .  S
C118       C1553   1.534   1_455  S
C118        C354   1.547   1_455  S
C119        C595   1.542       .  S
C119        H126   1.086       .  S
C119        C120   1.366       .  D
C120        C598   1.534   1_455  S
C120        C178   1.490       .  S
C121        C125   1.538   1_665  S
C121        C597   1.534   1_655  S
C121       C1554   1.539       .  S
C121        H127   1.107       .  S
C122       C1549   1.534       .  S
C122        H128   1.086       .  S
C122        C123   1.359       .  D
C123       C1552   1.539       .  S
C123        C143   1.477       .  S
C124        H129   1.078       .  S
C124        C125   1.370       .  D
C125        C162   1.496       .  S
C130        C131   1.541       .  S
C130        C136   1.549       .  S
C130        C134   1.543       .  S
C130        C242   1.546       .  S
C131        H138   1.084       .  S
C131        C132   1.366       .  D
C132        C133   1.539       .  S
C132        C223   1.494       .  S
C133        C137   1.537       .  S
C133        C135   1.538       .  S
C133        H139   1.111       .  S
C134        H140   1.084       .  S
C134        C135   1.368       .  D
C135        C191   1.490       .  S
C136        H141   1.080       .  S
C136        C137   1.361       .  D
C137        C207   1.479       .  S
C142        C143   1.401       .  A
C142        C147   1.401       .  A
C142        H149   1.083       .  S
C143        C144   1.414       .  A
C144        C151   1.505       .  S
C144        C145   1.402       .  A
C145        C146   1.401       .  A
C145        H150   1.085       .  S
C146        C147   1.410       .  A
C147        C148   1.507       .  S
C148        H152   1.111       .  S
C148        H153   1.110       .  S
C148        H154   1.110       .  S
C151        H156   1.110       .  S
C151        H157   1.110       .  S
C151        H632   1.107       .  S
H155        C628   1.107       .  S
C158        C159   1.403       .  A
C158        C163   1.404       .  A
C158        H165   1.085       .  S
C159        C160   1.414       .  A
C160        C167   1.510       .  S
C160        C161   1.401       .  A
C161        C162   1.404       .  A
C161        H166   1.079   1_455  S
C162        C163   1.420       .  A
C163        C164   1.508       .  S
C164        H168   1.111       .  S
C164        H169   1.110       .  S
C164        H170   1.107       .  S
C167        H171   1.110       .  S
C167        H172   1.109       .  S
C167        H173   1.111   1_455  S
C174        C175   1.401       .  A
C174        C179   1.404       .  A
C174        H181   1.084       .  S
C175        C176   1.413       .  A
C176        C183   1.507       .  S
C176        C177   1.405       .  A
C177        C178   1.405       .  A
C177        H659   1.084       .  S
C178        C179   1.416       .  A
C179       C1134   1.506   1_455  S
C180       C1133   1.506       .  S
C180        H184   1.111       .  S
C180        H185   1.108       .  S
C180        H186   1.105       .  S
H182        C654   1.084       .  S
C183        H187   1.110       .  S
C183        H188   1.110       .  S
C183        H666   1.111       .  S
H189        C660   1.111       .  S
C190        C191   1.404       .  A
C190        C195   1.403       .  A
C190        H197   1.082       .  S
C191        C192   1.418       .  A
C192        C199   1.506       .  S
C192        C193   1.404       .  A
C193        C194   1.401       .  A
C193        H198   1.084       .  S
C194        C195   1.414       .  A
C195        C196   1.508       .  S
C196        H200   1.111       .  S
C196        H201   1.111       .  S
C196        H202   1.109       .  S
C199        H203   1.106       .  S
C199        H204   1.106       .  S
C199        H205   1.111       .  S
C206        C207   1.396       .  A
C206        C688   1.402       .  A
C206        H213   1.081       .  S
C207        C208   1.411       .  A
C208        C215   1.508       .  S
C208        C209   1.405       .  A
C209        C687   1.409   1_545  A
C209        H214   1.084   1_545  S
C210        C211   1.424       .  A
C210        C686   1.409       .  A
C211        C212   1.510       .  S
C211        C683   1.402       .  A
C212        H216   1.111       .  S
C212        H217   1.110       .  S
C212        H218   1.110       .  S
C215        H219   1.107       .  S
C215        H220   1.109       .  S
C215        H221   1.111       .  S
C222        C223   1.404       .  A
C222        C227   1.404       .  A
C222        H229   1.078       .  S
C223        C224   1.419       .  A
C224        C231   1.507       .  S
C224       C1179   1.406       .  A
C225        C226   1.403       .  A
C225       C1178   1.406   1_455  A
C225        H230   1.084       .  S
C226       C1181   1.414   1_455  A
C227        C228   1.509       .  S
C227       C1180   1.414       .  A
C228        H232   1.111       .  S
C228        H233   1.109       .  S
C228        H234   1.110       .  S
C231        H235   1.106       .  S
C231        H236   1.106       .  S
C231        H237   1.111       .  S
C238        C239   1.409       .  A
C238        C243   1.405       .  A
C238        H245   1.074       .  S
C239        C240   1.427       .  A
C240        C247   1.518       .  S
C240        C241   1.407       .  A
C241        C242   1.410       .  A
C241        H246   1.073       .  S
C242        C243   1.425       .  A
C243        C244   1.513       .  S
C244        H248   1.110       .  S
C244        H249   1.100       .  S
C244        H250   1.111       .  S
C247        H251   1.105       .  S
C247        H252   1.105       .  S
C247        H253   1.111       .  S
C254        C255   1.398       .  A
C254        C259   1.399       .  A
C254        H261   1.085       .  S
C255        C256   1.412       .  A
C256        C263   1.506       .  S
C256        C257   1.408       .  A
C257        C258   1.407       .  A
C257        H262   1.084       .  S
C258        C259   1.415       .  A
C259        C260   1.500       .  S
C260        H264   1.111       .  S
C260        H265   1.105       .  S
C260        H266   1.107       .  S
C263        H267   1.110       .  S
C263        H268   1.110       .  S
C263        H269   1.111       .  S
C270        C271   1.405       .  A
C270        C275   1.404       .  A
C270        H277   1.081       .  S
C271        C272   1.419       .  A
C272        C279   1.508       .  S
C272        C273   1.404       .  A
C273        C274   1.404       .  A
C273        H278   1.085       .  S
C274        C275   1.417       .  A
C275        C276   1.509       .  S
C276        H280   1.111       .  S
C276        H281   1.109       .  S
C276       H1236   1.110       .  S
C279        H283   1.107       .  S
C279        H284   1.110       .  S
C279        H285   1.111       .  S
H282       C1230   1.110       .  S
C286        C287   1.401       .  A
C286        C291   1.404       .  A
C286        H293   1.084       .  S
C287        C288   1.410       .  A
C288        C295   1.507   1_545  S
C288        C289   1.400       .  A
C289        C290   1.400       .  A
C289        H294   1.080       .  S
C290        C291   1.411       .  A
C291        C292   1.505       .  S
C292        H296   1.111       .  S
C292        H297   1.100       .  S
C292        H298   1.110       .  S
C295        H299   1.110       .  S
C295        H777   1.110       .  S
C295        H778   1.111       .  S
H300        C772   1.110       .  S
H301        C772   1.111       .  S
C302        C303   1.396       .  A
C302        C307   1.402       .  A
C302        H309   1.080       .  S
C303        C304   1.411       .  A
C304        C311   1.506       .  S
C304        C305   1.406       .  A
C305        C306   1.408       .  A
C305        H310   1.084       .  S
C306        C307   1.423       .  A
C307        C308   1.510       .  S
C308        H312   1.111       .  S
C308        H313   1.110       .  S
C308        H314   1.110       .  S
C311        H315   1.108       .  S
C311        H316   1.108       .  S
C311        H317   1.111       .  S
C318        C319   1.401       .  A
C318        C323   1.403       .  A
C318        H325   1.084       .  S
C319        C320   1.415       .  A
C320        C327   1.509       .  S
C320        C321   1.403       .  A
C321        C322   1.402       .  A
C321        H326   1.078       .  S
C322        C323   1.420       .  A
C323        C324   1.508       .  S
C324        H328   1.111   1_455  S
C324        H329   1.104       .  S
C324        H330   1.106       .  S
C327        H331   1.110       .  S
C327        H332   1.109       .  S
C327        H333   1.111       .  S
C334        C335   1.403       .  A
C334        C339   1.402       .  A
C334        H341   1.084       .  S
C335        C336   1.417       .  A
C336        C343   1.508       .  S
C336        C337   1.403       .  A
C337        C338   1.402       .  A
C337        H342   1.083       .  S
C338        C339   1.416       .  A
C339        C340   1.506       .  S
C340        H344   1.111   1_455  S
C340        H345   1.106       .  S
C340        H346   1.104       .  S
C343        H347   1.110       .  S
C343        H348   1.110       .  S
C343        H349   1.111       .  S
C350        C355   1.407   1_556  A
C350       C1782   1.411       .  A
C350        H357   1.073       .  S
C351        C352   1.426   1_665  A
C351       C1781   1.411       .  A
C352        C359   1.515       .  S
C352        C353   1.406   1_556  A
C353        C354   1.409   1_445  A
C353        H358   1.072       .  S
C354       C1786   1.427       .  A
C355        C356   1.518       .  S
C355       C1785   1.427       .  A
C356        H360   1.110       .  S
C356        H361   1.105       .  S
C356        H362   1.105       .  S
C359        H363   1.102       .  S
C359        H364   1.104       .  S
C359        H365   1.111       .  S
C366        C367   1.409       .  A
C366        C371   1.402       .  A
C366        H373   1.074       .  S
C367        C368   1.425       .  A
C368        C375   1.514       .  S
C368        C369   1.402       .  A
C369        C370   1.409       .  A
C369        H374   1.074       .  S
C370        C371   1.425       .  A
C371        C372   1.514       .  S
C372        H376   1.111       .  S
C372        H377   1.111       .  S
C372        H378   1.100       .  S
C375        H379   1.100       .  S
C375        H380   1.111       .  S
C375        H381   1.111       .  S
C382        C383   1.402       .  A
C382        C387   1.401       .  A
C382        H389   1.085       .  S
C383        C384   1.420       .  A
C384        C391   1.508       .  S
C384        C385   1.405       .  A
C385        C386   1.402       .  A
C385        H390   1.084       .  S
C386        C387   1.416       .  A
C387       C1342   1.502       .  S
C388       C1341   1.502   1_455  S
C388        H392   1.110       .  S
C388        H393   1.111       .  S
C388        H394   1.096       .  S
C391        H395   1.110       .  S
C391        H396   1.110       .  S
C391        H397   1.111       .  S
C398        C399   1.403       .  A
C398        C403   1.403       .  A
C398        H405   1.085       .  S
C399        C400   1.417       .  A
C400        C407   1.509       .  S
C400        C401   1.402       .  A
C401        C402   1.402       .  A
C401        H406   1.084       .  S
C402        C403   1.419       .  A
C403        C881   1.509       .  S
C404        C880   1.509       .  S
C404        H408   1.111       .  S
C404        H409   1.105       .  S
C404        H410   1.110       .  S
C407        H411   1.110       .  S
C407        H412   1.109       .  S
C407        H413   1.111       .  S
C414        C415   1.407       .  A
C414        C419   1.405       .  A
C414        H421   1.084       .  S
C415        C416   1.423       .  A
C416        C423   1.508       .  S
C416        C417   1.407       .  A
C417        C418   1.399       .  A
C417        H899   1.085   1_545  S
C418        C419   1.412       .  A
C419       C1374   1.505       .  S
C420       C1373   1.505   1_455  S
C420        H424   1.111       .  S
C420        H425   1.110       .  S
C420        H426   1.105       .  S
H422        C894   1.085       .  S
C423        H427   1.110       .  S
C423        H428   1.109   1_545  S
C423        H906   1.111   1_545  S
H429        C900   1.111       .  S
C430        C431   1.401       .  A
C430        C435   1.404       .  A
C430        H437   1.085       .  S
C431        C432   1.415       .  A
C432        C439   1.509       .  S
C432        C433   1.403       .  A
C433        C434   1.403       .  A
C433        H438   1.084       .  S
C434        C435   1.420       .  A
C435        C436   1.509       .  S
C436        H440   1.111       .  S
C436        H441   1.104       .  S
C436        H442   1.110       .  S
C439        H443   1.109       .  S
C439        H444   1.110       .  S
C439        H445   1.111       .  S
C446        C447   1.403       .  A
C446        C451   1.404       .  A
C446        H453   1.079       .  S
C447        C448   1.418       .  A
C448        C455   1.508       .  S
C448       C1403   1.406   1_455  A
C449        C450   1.403       .  A
C449       C1402   1.406       .  A
C449        H454   1.084       .  S
C450       C1405   1.414       .  A
C451        C452   1.508       .  S
C451       C1404   1.414   1_455  A
C452        H456   1.111       .  S
C452        H457   1.109       .  S
C452        H458   1.110   1_455  S
C455        H459   1.111       .  S
C455        H460   1.106       .  S
C455       H1415   1.111       .  S
H461       C1409   1.111       .  S
C462        C467   1.403       .  A
C462        C940   1.401       .  A
C462        H946   1.084       .  S
C463        C939   1.401       .  A
C463        C941   1.411   1_545  A
C464        C948   1.507       .  S
C464        C465   1.403       .  A
C464        C940   1.411       .  A
C465        C466   1.400       .  A
C465        H470   1.081       .  S
C466        C467   1.412       .  A
C467        C468   1.504       .  S
C468        H472   1.111       .  S
C468        H473   1.110       .  S
C468        H474   1.109       .  S
H469        C939   1.084       .  S
C471        C941   1.507       .  S
C471        H475   1.110   1_565  S
C471        H476   1.110       .  S
C471        H954   1.111       .  S
H477        C948   1.111       .  S
O478        C494   1.278       .  A
O478       Zn484   2.035       .  S
C479        O495   1.278       .  A
C479        O492   1.274       .  A
C479        C892   1.494       .  S
O480        C493   1.275       .  A
O480       Cd487   2.073       .  S
O481        C499   1.274       .  A
O481       Cd490   2.064       .  S
O482        C496   1.271       .  A
O482       Cd486   2.057       .  S
O483        C494   1.271       .  A
O483       Cd486   2.053       .  S
Zn484       O495   2.043       .  S
Zn484       O497   2.029       .  S
Zn484       O489   1.949       .  S
O485        C496   1.275       .  A
O485       Cd490   2.077       .  S
Cd486       O488   2.053       .  S
Cd486       O489   1.993       .  S
Cd487       O491   2.088       .  S
Cd487       O500   2.072       .  S
Cd487       O489   2.006       .  S
O488        C498   1.272       .  A
O489       Cd490   1.999       .  S
Cd490       O492   2.069       .  S
O491        C498   1.277       .  A
C493        O497   1.275       .  A
C493        C927   1.482       .  S
C494        C860   1.486       .  S
C496        C876   1.483       .  S
C498        C908   1.479       .  S
C499        O500   1.275       .  A
C499        C940   1.469       .  S
C501        C502   1.551       .  S
C501        C507   1.539       .  S
C501        C505   1.539       .  S
C501        C844   1.541       .  S
C502        H509   1.080       .  S
C502        C503   1.362       .  D
C503        C504   1.533       .  S
C503        C943   1.478       .  S
C504        C508   1.540       .  S
C504        C506   1.538       .  S
C504        H510   1.111       .  S
C505        H511   1.086       .  S
C505        C506   1.364       .  D
C506        C911   1.485       .  S
C507        H512   1.084       .  S
C507        C508   1.366       .  D
C508        C924   1.491       .  S
C513       C1468   1.540   1_455  S
C513        C519   1.541       .  S
C513        C994   1.556   1_455  S
C513        C828   1.550   1_455  S
C514       C1467   1.540       .  S
C514        H521   1.086       .  S
C514        C515   1.365       .  D
C515       C1470   1.535       .  S
C515        C895   1.484       .  S
C516       C1469   1.535   1_455  S
C516        C520   1.536       .  S
C516        C995   1.532   1_455  S
C516        H522   1.111       .  S
C517        C990   1.557       .  S
C517        H523   1.080       .  S
C517        C518   1.366       .  D
C518        C993   1.532   1_565  S
C518        C863   1.487       .  S
C519        H524   1.085       .  S
C519        C520   1.365       .  D
C520        C879   1.485       .  S
O525        C541   1.277       .  A
C526        O542   1.276       .  A
C526        O539   1.272       .  A
C526        C796   1.481       .  S
O527        C540   1.272       .  A
O528        C546   1.273       .  A
O528       Cd537   2.056       .  S
O529        C543   1.274       .  A
O529      Cd1487   2.063   1_455  S
O530        C541   1.271       .  A
O530       Cd533   2.054       .  S
Zn531      O1496   2.027       .  S
Zn531       O544   2.022       .  S
O532        C543   1.273       .  A
Cd533      O1483   2.063       .  S
Cd533       O535   2.061       .  S
Cd533       O536   1.989       .  S
Cd534       O538   2.084       .  S
Cd534      O1024   2.085   1_565  S
Cd534       O536   2.004       .  S
O535        C545   1.273       .  A
O536      Cd1014   1.993   1_565  S
Cd537       O539   2.058       .  S
Cd537      O1013   1.994   1_455  S
O538        C545   1.277       .  A
C540        O544   1.274       .  A
C540        C764   1.466       .  S
C541        C783   1.492       .  S
O542      Zn1485   2.027   1_455  S
C543        C812   1.483       .  S
C545        C751   1.486       .  S
C546        O547   1.275       .  A
C546        C732   1.475       .  S
O547      Cd1011   2.085   1_455  S
C548        C549   1.543       .  S
C548        C554   1.535       .  S
C548        C552   1.554       .  S
C548        C716   1.548       .  S
C549        H556   1.086       .  S
C549        C550   1.365       .  D
C550        C551   1.536       .  S
C550        C735   1.491       .  S
C551        C555   1.541       .  S
C551        C553   1.540       .  S
C551        H557   1.108       .  S
C552        H558   1.079       .  S
C552        C553   1.373       .  D
C553        C748   1.499       .  S
C554        H559   1.086       .  S
C554        C555   1.357       .  D
C555        C767   1.477       .  S
C560        C561   1.552       .  S
C560        C566   1.540       .  S
C560        C564   1.535       .  S
C560        C847   1.541       .  S
C561        H568   1.076       .  S
C561        C562   1.366       .  D
C562        C563   1.538       .  S
C562        C799   1.492       .  S
C563        C567   1.536       .  S
C563        C565   1.541       .  S
C563        H569   1.111       .  S
C564        H570   1.086       .  S
C564        C565   1.360       .  D
C565        C780   1.480       .  S
C566        H571   1.084       .  S
C566        C567   1.365       .  D
C567        C815   1.486       .  S
O572        C588   1.273       .  A
O572       Zn578   2.016       .  S
C573        O589   1.275       .  A
C573        O586   1.275       .  A
C573        C703   1.484       .  S
O574        C587   1.274       .  A
O574       Cd581   2.071       .  S
O575        C593   1.276       .  A
O575       Cd584   2.074       .  S
O576        C590   1.271       .  A
O576       Cd580   2.054       .  S
O577        C588   1.274       .  A
O577       Cd580   2.067       .  S
Zn578       O589   2.024       .  S
Zn578       O591   2.005       .  S
Zn578       O583   1.942       .  S
O579        C590   1.277       .  A
O579       Cd584   2.085       .  S
Cd580       O582   2.065       .  S
Cd580       O583   1.994       .  S
Cd581       O585   2.064       .  S
Cd581       O594   2.073       .  S
Cd581       O583   2.004       .  S
O582        C592   1.273       .  A
O583       Cd584   2.002       .  S
Cd584       O586   2.075       .  S
O585        C592   1.273       .  A
C587        O591   1.272       .  A
C587        C636   1.480       .  S
C588        C671   1.478       .  S
C590        C687   1.493       .  S
C592        C623   1.468       .  S
C593        O594   1.275       .  A
C593        C652   1.478       .  S
C595        C601   1.554       .  S
C595       C1076   1.534   1_455  S
C595        C831   1.547   1_455  S
C596        H603   1.086       .  S
C596        C597   1.366       .  D
C597        C655   1.489       .  S
C598        C602   1.538   1_655  S
C598       C1077   1.539       .  S
C598        H604   1.107       .  S
C599       C1072   1.534       .  S
C599        H605   1.086       .  S
C599        C600   1.359       .  D
C600       C1075   1.539       .  S
C600        C620   1.477       .  S
C601        H606   1.078       .  S
C601        C602   1.370       .  D
C602        C639   1.496       .  S
C607        C608   1.541       .  S
C607        C613   1.549       .  S
C607        C611   1.542       .  S
C607        C719   1.547       .  S
C608        H615   1.084       .  S
C608        C609   1.366       .  D
C609        C610   1.539       .  S
C609        C700   1.494       .  S
C610        C614   1.537       .  S
C610        C612   1.538       .  S
C610        H616   1.111       .  S
C611        H617   1.084       .  S
C611        C612   1.368       .  D
C612        C668   1.490       .  S
C613        H618   1.080       .  S
C613        C614   1.362       .  D
C614        C684   1.480       .  S
C619        C620   1.401       .  A
C619        C624   1.401       .  A
C619        H626   1.083       .  S
C620        C621   1.414       .  A
C621        C628   1.505   1_565  S
C621        C622   1.402       .  A
C622        C623   1.401       .  A
C622        H627   1.085       .  S
C623        C624   1.410       .  A
C624        C625   1.507       .  S
C625        H629   1.111       .  S
C625        H630   1.110       .  S
C625        H631   1.110       .  S
C628        H633   1.110       .  S
C628        H634   1.110       .  S
C635        C636   1.403       .  A
C635        C640   1.404       .  A
C635        H642   1.085       .  S
C636        C637   1.414       .  A
C637        C644   1.510       .  S
C637        C638   1.401       .  A
C638        C639   1.404       .  A
C638        H643   1.079   1_455  S
C639        C640   1.420       .  A
C640        C641   1.508       .  S
C641        H645   1.111       .  S
C641        H646   1.110       .  S
C641        H647   1.107       .  S
C644        H648   1.110       .  S
C644        H649   1.109       .  S
C644        H650   1.111   1_455  S
C651        C652   1.401       .  A
C651        C656   1.404       .  A
C651        H658   1.084       .  S
C652        C653   1.413       .  A
C653        C660   1.507       .  S
C653        C654   1.405       .  A
C654        C655   1.405       .  A
C655        C656   1.416       .  A
C656       C1611   1.506   1_455  S
C657       C1610   1.506       .  S
C657        H661   1.111       .  S
C657        H662   1.108       .  S
C657        H663   1.105       .  S
C660        H664   1.110       .  S
C660        H665   1.110       .  S
C667        C668   1.404       .  A
C667        C672   1.403       .  A
C667        H674   1.082       .  S
C668        C669   1.418       .  A
C669        C676   1.507       .  S
C669        C670   1.404       .  A
C670        C671   1.401       .  A
C670        H675   1.084       .  S
C671        C672   1.414       .  A
C672        C673   1.508       .  S
C673        H677   1.111       .  S
C673        H678   1.111       .  S
C673        H679   1.109       .  S
C676        H680   1.106       .  S
C676        H681   1.106       .  S
C676        H682   1.111       .  S
C683        C684   1.396       .  A
C683        H690   1.081       .  S
C684        C685   1.410       .  A
C685        C692   1.508       .  S
C685        C686   1.405       .  A
C686        H691   1.084       .  S
C687        C688   1.424   1_565  A
C688        C689   1.510       .  S
C689        H693   1.111       .  S
C689        H694   1.110       .  S
C689        H695   1.110   1_545  S
C692        H696   1.107       .  S
C692        H697   1.109       .  S
C692        H698   1.111       .  S
C699        C700   1.404       .  A
C699        C704   1.404       .  A
C699        H706   1.078       .  S
C700        C701   1.419       .  A
C701        C708   1.507       .  S
C701       C1656   1.406       .  A
C702       C1655   1.406   1_455  A
C702        C703   1.403       .  A
C702        H707   1.084       .  S
C703       C1658   1.414   1_455  A
C704        C705   1.509       .  S
C704       C1657   1.414       .  A
C705        H709   1.111       .  S
C705        H710   1.109       .  S
C705        H711   1.110       .  S
C708        H712   1.106       .  S
C708        H713   1.106       .  S
C708        H714   1.111       .  S
C715        C716   1.409       .  A
C715        C720   1.405       .  A
C715        H722   1.074       .  S
C716        C717   1.427       .  A
C717        C724   1.518       .  S
C717        C718   1.407       .  A
C718        C719   1.410       .  A
C718        H723   1.073       .  S
C719        C720   1.425       .  A
C720        C721   1.513       .  S
C721        H725   1.110       .  S
C721        H726   1.100       .  S
C721        H727   1.111       .  S
C724        H728   1.105       .  S
C724        H729   1.105       .  S
C724        H730   1.111       .  S
C731        C732   1.398       .  A
C731        C736   1.400       .  A
C731        H738   1.085       .  S
C732        C733   1.412       .  A
C733        C740   1.506       .  S
C733        C734   1.408       .  A
C734        C735   1.407       .  A
C734        H739   1.084       .  S
C735        C736   1.415       .  A
C736        C737   1.500       .  S
C737        H741   1.111       .  S
C737        H742   1.105       .  S
C737        H743   1.107       .  S
C740        H744   1.110       .  S
C740        H745   1.110       .  S
C740        H746   1.111       .  S
C747        C748   1.405       .  A
C747        C752   1.404       .  A
C747        H754   1.081       .  S
C748        C749   1.419       .  A
C749        C756   1.508       .  S
C749        C750   1.404       .  A
C750        C751   1.404       .  A
C750        H755   1.085       .  S
C751        C752   1.417       .  A
C752        C753   1.509       .  S
C753        H757   1.111       .  S
C753        H758   1.109       .  S
C753       H1713   1.110       .  S
C756        H760   1.107       .  S
C756        H761   1.110       .  S
C756        H762   1.111       .  S
H759       C1707   1.110       .  S
C763        C764   1.401       .  A
C763        C768   1.404       .  A
C763        H770   1.084       .  S
C764        C765   1.410       .  A
C765        C772   1.507       .  S
C765        C766   1.400       .  A
C766        C767   1.400       .  A
C766        H771   1.080       .  S
C767        C768   1.411       .  A
C768        C769   1.505       .  S
C769        H773   1.111       .  S
C769        H774   1.100       .  S
C769        H775   1.110       .  S
C772        H776   1.110       .  S
C779        C780   1.396       .  A
C779        C784   1.402       .  A
C779        H786   1.080       .  S
C780        C781   1.411       .  A
C781        C788   1.506       .  S
C781        C782   1.406       .  A
C782        C783   1.408       .  A
C782        H787   1.084       .  S
C783        C784   1.423       .  A
C784        C785   1.510       .  S
C785        H789   1.111       .  S
C785        H790   1.110       .  S
C785        H791   1.110       .  S
C788        H792   1.108       .  S
C788        H793   1.108       .  S
C788        H794   1.111   1_565  S
C795        C796   1.401       .  A
C795        C800   1.403       .  A
C795        H802   1.084       .  S
C796        C797   1.415       .  A
C797        C804   1.509       .  S
C797        C798   1.403       .  A
C798        C799   1.402       .  A
C798        H803   1.078       .  S
C799        C800   1.420       .  A
C800        C801   1.508       .  S
C801        H805   1.111   1_455  S
C801        H806   1.104       .  S
C801        H807   1.106       .  S
C804        H808   1.110       .  S
C804        H809   1.109       .  S
C804        H810   1.111       .  S
C811        C812   1.404       .  A
C811        C816   1.402       .  A
C811        H818   1.084       .  S
C812        C813   1.417       .  A
C813        C820   1.508       .  S
C813        C814   1.403       .  A
C814        C815   1.402       .  A
C814        H819   1.083       .  S
C815        C816   1.416       .  A
C816        C817   1.506       .  S
C817        H821   1.111   1_455  S
C817        H822   1.106       .  S
C817        H823   1.104       .  S
C820        H824   1.110   1_565  S
C820        H825   1.110       .  S
C820        H826   1.111       .  S
C827       C1305   1.411       .  A
C827        C832   1.407   1_556  A
C827        H834   1.073       .  S
C828       C1304   1.411       .  A
C828        C829   1.426   1_655  A
C829        C836   1.515       .  S
C829        C830   1.406   1_556  A
C830        C831   1.409   1_455  A
C830        H835   1.072       .  S
C831       C1309   1.427       .  A
C832        C833   1.518       .  S
C832       C1308   1.427       .  A
C833        H837   1.110       .  S
C833        H838   1.105       .  S
C833        H839   1.105       .  S
C836        H840   1.102       .  S
C836        H841   1.104       .  S
C836        H842   1.111       .  S
C843        C844   1.409       .  A
C843        C848   1.402       .  A
C843        H850   1.074       .  S
C844        C845   1.425       .  A
C845        C852   1.514       .  S
C845        C846   1.402       .  A
C846        C847   1.409       .  A
C846        H851   1.074       .  S
C847        C848   1.425       .  A
C848        C849   1.514       .  S
C849        H853   1.111       .  S
C849        H854   1.111       .  S
C849        H855   1.100       .  S
C852        H856   1.100       .  S
C852        H857   1.111       .  S
C852        H858   1.111       .  S
C859        C860   1.403       .  A
C859        C864   1.401       .  A
C859        H866   1.085       .  S
C860        C861   1.420       .  A
C861        C868   1.508       .  S
C861        C862   1.405       .  A
C862        C863   1.402       .  A
C862        H867   1.084       .  S
C863        C864   1.416       .  A
C864       C1819   1.502       .  S
C865       C1818   1.502   1_455  S
C865        H869   1.110       .  S
C865        H870   1.111       .  S
C865        H871   1.096       .  S
C868        H872   1.110       .  S
C868        H873   1.110       .  S
C868        H874   1.111       .  S
C875        C876   1.404       .  A
C875        C880   1.403       .  A
C875        H882   1.085       .  S
C876        C877   1.417       .  A
C877        C884   1.509       .  S
C877        C878   1.402       .  A
C878        C879   1.402       .  A
C878        H883   1.084       .  S
C879        C880   1.419       .  A
C881        H885   1.111   1_545  S
C881        H886   1.105   1_545  S
C881        H887   1.110       .  S
C884        H888   1.110       .  S
C884        H889   1.109       .  S
C884        H890   1.111       .  S
C891        C892   1.407       .  A
C891        C896   1.405       .  A
C891        H898   1.084       .  S
C892        C893   1.423       .  A
C893        C900   1.508       .  S
C893        C894   1.407       .  A
C894        C895   1.399       .  A
C895        C896   1.412       .  A
C896       C1851   1.505       .  S
C897       C1850   1.505   1_455  S
C897        H901   1.111       .  S
C897        H902   1.110       .  S
C897        H903   1.105       .  S
C900        H904   1.110       .  S
C900        H905   1.109       .  S
C907        C908   1.401       .  A
C907        C912   1.404       .  A
C907        H914   1.085       .  S
C908        C909   1.415       .  A
C909        C916   1.509       .  S
C909        C910   1.403       .  A
C910        C911   1.403       .  A
C910        H915   1.084       .  S
C911        C912   1.420       .  A
C912        C913   1.509       .  S
C913        H917   1.111       .  S
C913        H918   1.104       .  S
C913        H919   1.110       .  S
C916        H920   1.109       .  S
C916        H921   1.110       .  S
C916        H922   1.111       .  S
C923        C924   1.403       .  A
C923        C928   1.404       .  A
C923        H930   1.079       .  S
C924        C925   1.418       .  A
C925        C932   1.508       .  S
C925       C1880   1.406   1_455  A
C926       C1879   1.406       .  A
C926        C927   1.403       .  A
C926        H931   1.084       .  S
C927       C1882   1.414       .  A
C928        C929   1.508       .  S
C928       C1881   1.414   1_455  A
C929        H933   1.111       .  S
C929        H934   1.109       .  S
C929        H935   1.110   1_455  S
C932        H936   1.111       .  S
C932        H937   1.106       .  S
C932       H1892   1.111       .  S
H938       C1886   1.111       .  S
C939        C944   1.403   1_545  A
C941        C942   1.403       .  A
C942        C943   1.400       .  A
C942        H947   1.081       .  S
C943        C944   1.412       .  A
C944        C945   1.504       .  S
C945        H949   1.111       .  S
C945        H950   1.110       .  S
C945        H951   1.109       .  S
C948        H952   1.110       .  S
C948        H953   1.110       .  S
O955        C971   1.278       .  A
O955       Zn961   2.035       .  S
C956        O972   1.278       .  A
C956        O969   1.274       .  A
C956       C1369   1.494       .  S
O957        C970   1.275       .  A
O957       Cd964   2.073       .  S
O958        C976   1.274       .  A
O958       Cd967   2.064       .  S
O959        C973   1.271       .  A
O959       Cd963   2.058       .  S
O960        C971   1.271       .  A
O960       Cd963   2.053       .  S
Zn961       O972   2.043       .  S
Zn961       O974   2.029       .  S
Zn961       O966   1.949       .  S
O962        C973   1.275       .  A
O962       Cd967   2.077       .  S
Cd963       O965   2.053       .  S
Cd963       O966   1.993       .  S
Cd964       O968   2.088       .  S
Cd964       O977   2.072       .  S
Cd964       O966   2.006       .  S
O965        C975   1.272       .  A
O966       Cd967   1.999       .  S
Cd967       O969   2.069       .  S
O968        C975   1.277       .  A
C970        O974   1.275       .  A
C970       C1404   1.482       .  S
C971       C1337   1.486       .  S
C973       C1353   1.483       .  S
C975       C1385   1.479       .  S
C976        O977   1.275       .  A
C976       C1417   1.469       .  S
C978        C979   1.551       .  S
C978        C984   1.539       .  S
C978        C982   1.539       .  S
C978       C1321   1.541       .  S
C979        H986   1.080       .  S
C979        C980   1.362       .  D
C980        C981   1.533       .  S
C980       C1420   1.478       .  S
C981        C985   1.540       .  S
C981        C983   1.538       .  S
C981        H987   1.111       .  S
C982        H988   1.086       .  S
C982        C983   1.364       .  D
C983       C1388   1.485       .  S
C984        H989   1.085       .  S
C984        C985   1.366       .  D
C985       C1401   1.491       .  S
C990        C996   1.541   1_565  S
C990       C1305   1.550       .  S
C991        H998   1.086       .  S
C991        C992   1.365       .  D
C992       C1372   1.484       .  S
C993        C997   1.536       .  S
C993        H999   1.111       .  S
C994       H1000   1.080       .  S
C994        C995   1.366       .  D
C995       C1340   1.487       .  S
C996       H1001   1.085       .  S
C996        C997   1.365       .  D
C997       C1356   1.485       .  S
O1002      C1018   1.277       .  A
O1002     Zn1485   2.039       .  S
C1003      O1019   1.276       .  A
C1003      O1016   1.272       .  A
C1003      C1273   1.480       .  S
O1004      C1017   1.272       .  A
O1004     Cd1488   2.055   1_545  S
O1005      C1023   1.273       .  A
O1005     Cd1014   2.056       .  S
O1006      C1020   1.274       .  A
O1007      C1018   1.271       .  A
O1007     Cd1010   2.054       .  S
Zn1008     O1479   2.039   1_545  S
Zn1008     O1021   2.023       .  S
Zn1008     O1490   1.952   1_545  S
O1009      C1020   1.273       .  A
O1009     Cd1491   2.066       .  S
Cd1010     O1012   2.061       .  S
Cd1010     O1013   1.989       .  S
Cd1011     O1481   2.055       .  S
Cd1011     O1015   2.083       .  S
Cd1011     O1013   2.004       .  S
O1012      C1022   1.273       .  A
O1013     Zn1485   1.952       .  S
Cd1014     O1486   2.066   1_545  S
Cd1014     O1016   2.057       .  S
O1015      C1022   1.277       .  A
C1017      O1021   1.274       .  A
C1017      C1241   1.466       .  S
C1018      C1260   1.492       .  S
C1020      C1289   1.482       .  S
C1022      C1228   1.486       .  S
C1023      O1024   1.276       .  A
C1023      C1209   1.475       .  S
C1025      C1026   1.543       .  S
C1025      C1031   1.535       .  S
C1025      C1029   1.554       .  S
C1025      C1193   1.547       .  S
C1026      H1033   1.086       .  S
C1026      C1027   1.365       .  D
C1027      C1028   1.536       .  S
C1027      C1212   1.491       .  S
C1028      C1032   1.541       .  S
C1028      C1030   1.540       .  S
C1028      H1034   1.108       .  S
C1029      H1035   1.079       .  S
C1029      C1030   1.373       .  D
C1030      C1225   1.499       .  S
C1031      H1036   1.086       .  S
C1031      C1032   1.357       .  D
C1032      C1244   1.478       .  S
C1037      C1038   1.552       .  S
C1037      C1043   1.540       .  S
C1037      C1041   1.535       .  S
C1037      C1324   1.541       .  S
C1038      H1045   1.076       .  S
C1038      C1039   1.365       .  D
C1039      C1040   1.538       .  S
C1039      C1276   1.492       .  S
C1040      C1044   1.536       .  S
C1040      C1042   1.541       .  S
C1040      H1046   1.111       .  S
C1041      H1047   1.086       .  S
C1041      C1042   1.360       .  D
C1042      C1257   1.481       .  S
C1043      H1048   1.084       .  S
C1043      C1044   1.365       .  D
C1044      C1292   1.486       .  S
O1049      C1065   1.273       .  A
O1049     Zn1055   2.016       .  S
C1050      O1066   1.275       .  A
C1050      O1063   1.275       .  A
C1050      C1180   1.483       .  S
O1051      C1064   1.274       .  A
O1051     Cd1058   2.071       .  S
O1052      C1070   1.276       .  A
O1052     Cd1061   2.074       .  S
O1053      C1067   1.271       .  A
O1053     Cd1057   2.054       .  S
O1054      C1065   1.274       .  A
O1054     Cd1057   2.067       .  S
Zn1055     O1066   2.024       .  S
Zn1055     O1068   2.005       .  S
Zn1055     O1060   1.942       .  S
O1056      C1067   1.277       .  A
O1056     Cd1061   2.086       .  S
Cd1057     O1059   2.066       .  S
Cd1057     O1060   1.994       .  S
Cd1058     O1062   2.064       .  S
Cd1058     O1071   2.073       .  S
Cd1058     O1060   2.004       .  S
O1059      C1069   1.273       .  A
O1060     Cd1061   2.002       .  S
Cd1061     O1063   2.075       .  S
O1062      C1069   1.273       .  A
C1064      O1068   1.272       .  A
C1064      C1113   1.480       .  S
C1065      C1148   1.478       .  S
C1067      C1164   1.494       .  S
C1069      C1100   1.468       .  S
C1070      O1071   1.275       .  A
C1070      C1129   1.478       .  S
C1072      C1550   1.542       .  S
C1072      C1078   1.554   1_565  S
C1072      C1308   1.547       .  S
C1073      C1549   1.542       .  S
C1073      H1080   1.086       .  S
C1073      C1074   1.366       .  D
C1074      C1552   1.534       .  S
C1074      C1132   1.490       .  S
C1075      C1551   1.534       .  S
C1075      C1079   1.538   1_565  S
C1075      H1081   1.107       .  S
C1076      H1082   1.086       .  S
C1076      C1077   1.359       .  D
C1077      C1097   1.477       .  S
C1078      H1083   1.078       .  S
C1078      C1079   1.370       .  D
C1079      C1116   1.496       .  S
C1084      C1085   1.541       .  S
C1084      C1090   1.549       .  S
C1084      C1088   1.543       .  S
C1084      C1196   1.546       .  S
C1085      H1092   1.084       .  S
C1085      C1086   1.366       .  D
C1086      C1087   1.539       .  S
C1086      C1177   1.494       .  S
C1087      C1091   1.537       .  S
C1087      C1089   1.538       .  S
C1087      H1093   1.111       .  S
C1088      H1094   1.084       .  S
C1088      C1089   1.368       .  D
C1089      C1145   1.490       .  S
C1090      H1095   1.080       .  S
C1090      C1091   1.361       .  D
C1091      C1161   1.479       .  S
C1096      C1097   1.401       .  A
C1096      C1101   1.401       .  A
C1096      H1103   1.083       .  S
C1097      C1098   1.414       .  A
C1098      C1105   1.505       .  S
C1098      C1099   1.402       .  A
C1099      C1100   1.401       .  A
C1099      H1104   1.085       .  S
C1100      C1101   1.410       .  A
C1101      C1102   1.507       .  S
C1102      H1106   1.111       .  S
C1102      H1107   1.110       .  S
C1102      H1108   1.110       .  S
C1105      H1586   1.107       .  S
C1105      H1110   1.110       .  S
C1105      H1111   1.110       .  S
H1109      C1582   1.107       .  S
C1112      C1113   1.403       .  A
C1112      C1117   1.404       .  A
C1112      H1119   1.085       .  S
C1113      C1114   1.414       .  A
C1114      C1121   1.510       .  S
C1114      C1115   1.401       .  A
C1115      C1116   1.404       .  A
C1115      H1120   1.079       .  S
C1116      C1117   1.420       .  A
C1117      C1118   1.508       .  S
C1118      H1122   1.111       .  S
C1118      H1123   1.110       .  S
C1118      H1124   1.107       .  S
C1121      H1125   1.110       .  S
C1121      H1126   1.109       .  S
C1121      H1127   1.111       .  S
C1128      C1129   1.401       .  A
C1128      C1133   1.404       .  A
C1128      H1135   1.084       .  S
C1129      C1130   1.413       .  A
C1130      C1137   1.507       .  S
C1130      C1131   1.405       .  A
C1131      C1132   1.405       .  A
C1131      H1613   1.084       .  S
C1132      C1133   1.416       .  A
C1134      H1138   1.111       .  S
C1134      H1139   1.108       .  S
C1134      H1140   1.105       .  S
H1136      C1608   1.084       .  S
C1137      H1141   1.110       .  S
C1137      H1142   1.110       .  S
C1137      H1620   1.111       .  S
H1143      C1614   1.111       .  S
C1144      C1145   1.404       .  A
C1144      C1149   1.403       .  A
C1144      H1151   1.082       .  S
C1145      C1146   1.418       .  A
C1146      C1153   1.506       .  S
C1146      C1147   1.404       .  A
C1147      C1148   1.401       .  A
C1147      H1152   1.084       .  S
C1148      C1149   1.414       .  A
C1149      C1150   1.508       .  S
C1150      H1154   1.111       .  S
C1150      H1155   1.111       .  S
C1150      H1156   1.109       .  S
C1153      H1157   1.106       .  S
C1153      H1158   1.106       .  S
C1153      H1159   1.111       .  S
C1160      C1161   1.396       .  A
C1160      C1642   1.402       .  A
C1160      H1167   1.081       .  S
C1161      C1162   1.411       .  A
C1162      C1169   1.508       .  S
C1162      C1163   1.405       .  A
C1163      C1641   1.409   1_545  A
C1163      H1168   1.084   1_545  S
C1164      C1640   1.409       .  A
C1164      C1165   1.424       .  A
C1165      C1166   1.510       .  S
C1165      C1637   1.402       .  A
C1166      H1170   1.111       .  S
C1166      H1171   1.110       .  S
C1166      H1172   1.110       .  S
C1169      H1173   1.107       .  S
C1169      H1174   1.109       .  S
C1169      H1175   1.111       .  S
C1176      C1177   1.404       .  A
C1176      C1181   1.404       .  A
C1176      H1183   1.078       .  S
C1177      C1178   1.419       .  A
C1178      C1185   1.507       .  S
C1179      C1180   1.403       .  A
C1179      H1184   1.084       .  S
C1181      C1182   1.509       .  S
C1182      H1186   1.111       .  S
C1182      H1187   1.109   1_655  S
C1182      H1188   1.110       .  S
C1185      H1189   1.106       .  S
C1185      H1190   1.106       .  S
C1185      H1191   1.111       .  S
C1192      C1193   1.409       .  A
C1192      C1197   1.405       .  A
C1192      H1199   1.074       .  S
C1193      C1194   1.427       .  A
C1194      C1201   1.518       .  S
C1194      C1195   1.407       .  A
C1195      C1196   1.410       .  A
C1195      H1200   1.073       .  S
C1196      C1197   1.425       .  A
C1197      C1198   1.513       .  S
C1198      H1202   1.110       .  S
C1198      H1203   1.100       .  S
C1198      H1204   1.111       .  S
C1201      H1205   1.105       .  S
C1201      H1206   1.105       .  S
C1201      H1207   1.111       .  S
C1208      C1209   1.398       .  A
C1208      C1213   1.399       .  A
C1208      H1215   1.085       .  S
C1209      C1210   1.412       .  A
C1210      C1217   1.506       .  S
C1210      C1211   1.408       .  A
C1211      C1212   1.407       .  A
C1211      H1216   1.084       .  S
C1212      C1213   1.415       .  A
C1213      C1214   1.500       .  S
C1214      H1218   1.111       .  S
C1214      H1219   1.105       .  S
C1214      H1220   1.107       .  S
C1217      H1221   1.110       .  S
C1217      H1222   1.110       .  S
C1217      H1223   1.111       .  S
C1224      C1225   1.405       .  A
C1224      C1229   1.404       .  A
C1224      H1231   1.081       .  S
C1225      C1226   1.419       .  A
C1226      C1233   1.508       .  S
C1226      C1227   1.404       .  A
C1227      C1228   1.404       .  A
C1227      H1232   1.085       .  S
C1228      C1229   1.417       .  A
C1229      C1230   1.509       .  S
C1230      H1234   1.111       .  S
C1230      H1235   1.109       .  S
C1233      H1237   1.107       .  S
C1233      H1238   1.110       .  S
C1233      H1239   1.111       .  S
C1240      C1241   1.401       .  A
C1240      C1245   1.404       .  A
C1240      H1247   1.084       .  S
C1241      C1242   1.410       .  A
C1242      C1249   1.507   1_545  S
C1242      C1243   1.400       .  A
C1243      C1244   1.400       .  A
C1243      H1248   1.080       .  S
C1244      C1245   1.411       .  A
C1245      C1246   1.505       .  S
C1246      H1250   1.111       .  S
C1246      H1251   1.100       .  S
C1246      H1252   1.110       .  S
C1249      H1253   1.110       .  S
C1249      H1731   1.110       .  S
C1249      H1732   1.111       .  S
H1254      C1726   1.110       .  S
H1255      C1726   1.111       .  S
C1256      C1257   1.396       .  A
C1256      C1261   1.402       .  A
C1256      H1263   1.080       .  S
C1257      C1258   1.411       .  A
C1258      C1265   1.506       .  S
C1258      C1259   1.406       .  A
C1259      C1260   1.408       .  A
C1259      H1264   1.084       .  S
C1260      C1261   1.423       .  A
C1261      C1262   1.510       .  S
C1262      H1266   1.111       .  S
C1262      H1267   1.110       .  S
C1262      H1268   1.110       .  S
C1265      H1269   1.108       .  S
C1265      H1270   1.108       .  S
C1265      H1271   1.111       .  S
C1272      C1273   1.401       .  A
C1272      C1277   1.403       .  A
C1272      H1279   1.084       .  S
C1273      C1274   1.415       .  A
C1274      C1281   1.509       .  S
C1274      C1275   1.403       .  A
C1275      C1276   1.402       .  A
C1275      H1280   1.078       .  S
C1276      C1277   1.420       .  A
C1277      C1278   1.508       .  S
C1278      H1282   1.111       .  S
C1278      H1283   1.104       .  S
C1278      H1284   1.106       .  S
C1281      H1285   1.110       .  S
C1281      H1286   1.109       .  S
C1281      H1287   1.111       .  S
C1288      C1289   1.403       .  A
C1288      C1293   1.402       .  A
C1288      H1295   1.084       .  S
C1289      C1290   1.417       .  A
C1290      C1297   1.508       .  S
C1290      C1291   1.403       .  A
C1291      C1292   1.402       .  A
C1291      H1296   1.083       .  S
C1292      C1293   1.416       .  A
C1293      C1294   1.506       .  S
C1294      H1298   1.111       .  S
C1294      H1299   1.106       .  S
C1294      H1300   1.104       .  S
C1297      H1301   1.110       .  S
C1297      H1302   1.110       .  S
C1297      H1303   1.111       .  S
C1304      C1309   1.407   1_556  A
C1304      H1311   1.073       .  S
C1305      C1306   1.426   1_565  A
C1306      C1313   1.515       .  S
C1306      C1307   1.406   1_556  A
C1307      C1308   1.409   1_545  A
C1307      H1312   1.072       .  S
C1309      C1310   1.518       .  S
C1310      H1314   1.110       .  S
C1310      H1315   1.105       .  S
C1310      H1316   1.105       .  S
C1313      H1317   1.102       .  S
C1313      H1318   1.104       .  S
C1313      H1319   1.111       .  S
C1320      C1321   1.409       .  A
C1320      C1325   1.402       .  A
C1320      H1327   1.074       .  S
C1321      C1322   1.425       .  A
C1322      C1329   1.514       .  S
C1322      C1323   1.402       .  A
C1323      C1324   1.409       .  A
C1323      H1328   1.074       .  S
C1324      C1325   1.425       .  A
C1325      C1326   1.514       .  S
C1326      H1330   1.111       .  S
C1326      H1331   1.111       .  S
C1326      H1332   1.100       .  S
C1329      H1333   1.100       .  S
C1329      H1334   1.111       .  S
C1329      H1335   1.111       .  S
C1336      C1337   1.402       .  A
C1336      C1341   1.401       .  A
C1336      H1343   1.085       .  S
C1337      C1338   1.420       .  A
C1338      C1345   1.508       .  S
C1338      C1339   1.405       .  A
C1339      C1340   1.402       .  A
C1339      H1344   1.084       .  S
C1340      C1341   1.416       .  A
C1342      H1346   1.110       .  S
C1342      H1347   1.111       .  S
C1342      H1348   1.096       .  S
C1345      H1349   1.110       .  S
C1345      H1350   1.110       .  S
C1345      H1351   1.111       .  S
C1352      C1353   1.403       .  A
C1352      C1357   1.403       .  A
C1352      H1359   1.085       .  S
C1353      C1354   1.417       .  A
C1354      C1361   1.509       .  S
C1354      C1355   1.402       .  A
C1355      C1356   1.402       .  A
C1355      H1360   1.084       .  S
C1356      C1357   1.419       .  A
C1357      C1835   1.509       .  S
C1358      C1834   1.509       .  S
C1358      H1362   1.111       .  S
C1358      H1363   1.105       .  S
C1358      H1364   1.110       .  S
C1361      H1365   1.110       .  S
C1361      H1366   1.109       .  S
C1361      H1367   1.111       .  S
C1368      C1369   1.407       .  A
C1368      C1373   1.405       .  A
C1368      H1375   1.084       .  S
C1369      C1370   1.423       .  A
C1370      C1377   1.508       .  S
C1370      C1371   1.407       .  A
C1371      C1372   1.399       .  A
C1371      H1853   1.085   1_545  S
C1372      C1373   1.412       .  A
C1374      H1378   1.111       .  S
C1374      H1379   1.110       .  S
C1374      H1380   1.105       .  S
H1376      C1848   1.085       .  S
C1377      H1381   1.110       .  S
C1377      H1382   1.109   1_545  S
C1377      H1860   1.111   1_545  S
H1383      C1854   1.111       .  S
C1384      C1385   1.401       .  A
C1384      C1389   1.404       .  A
C1384      H1391   1.085       .  S
C1385      C1386   1.415       .  A
C1386      C1393   1.509       .  S
C1386      C1387   1.403       .  A
C1387      C1388   1.403       .  A
C1387      H1392   1.084       .  S
C1388      C1389   1.420       .  A
C1389      C1390   1.509       .  S
C1390      H1394   1.111       .  S
C1390      H1395   1.104       .  S
C1390      H1396   1.110       .  S
C1393      H1397   1.109       .  S
C1393      H1398   1.110       .  S
C1393      H1399   1.111       .  S
C1400      C1401   1.403       .  A
C1400      C1405   1.404       .  A
C1400      H1407   1.079       .  S
C1401      C1402   1.418       .  A
C1402      C1409   1.508       .  S
C1403      C1404   1.403       .  A
C1403      H1408   1.084       .  S
C1405      C1406   1.508       .  S
C1406      H1410   1.111       .  S
C1406      H1411   1.109       .  S
C1406      H1412   1.110       .  S
C1409      H1413   1.111       .  S
C1409      H1414   1.106       .  S
C1416      C1894   1.401       .  A
C1416      C1421   1.403       .  A
C1416      H1900   1.084       .  S
C1417      C1893   1.401       .  A
C1417      C1895   1.411   1_545  A
C1418      C1902   1.507       .  S
C1418      C1894   1.411       .  A
C1418      C1419   1.403       .  A
C1419      C1420   1.400       .  A
C1419      H1424   1.081       .  S
C1420      C1421   1.412       .  A
C1421      C1422   1.504       .  S
C1422      H1426   1.111       .  S
C1422      H1427   1.110       .  S
C1422      H1428   1.109       .  S
H1423      C1893   1.084       .  S
C1425      C1895   1.507       .  S
C1425      H1429   1.110   1_565  S
C1425      H1430   1.110       .  S
C1425      H1908   1.111       .  S
H1431      C1902   1.111       .  S
O1432      C1448   1.278       .  A
O1432     Zn1438   2.035       .  S
C1433      O1449   1.278       .  A
C1433      O1446   1.274       .  A
C1433      C1846   1.494       .  S
O1434      C1447   1.275       .  A
O1434     Cd1441   2.073       .  S
O1435      C1453   1.274       .  A
O1435     Cd1444   2.064       .  S
O1436      C1450   1.271       .  A
O1436     Cd1440   2.057       .  S
O1437      C1448   1.271       .  A
O1437     Cd1440   2.053       .  S
Zn1438     O1449   2.043       .  S
Zn1438     O1451   2.029       .  S
Zn1438     O1443   1.949       .  S
O1439      C1450   1.275       .  A
O1439     Cd1444   2.077       .  S
Cd1440     O1442   2.053       .  S
Cd1440     O1443   1.993       .  S
Cd1441     O1445   2.088       .  S
Cd1441     O1454   2.072       .  S
Cd1441     O1443   2.006       .  S
O1442      C1452   1.272       .  A
O1443     Cd1444   1.999       .  S
Cd1444     O1446   2.069       .  S
O1445      C1452   1.277       .  A
C1447      O1451   1.275       .  A
C1447      C1881   1.482       .  S
C1448      C1814   1.486       .  S
C1450      C1830   1.483       .  S
C1452      C1862   1.479       .  S
C1453      O1454   1.275       .  A
C1453      C1894   1.469       .  S
C1455      C1456   1.551       .  S
C1455      C1461   1.539       .  S
C1455      C1459   1.539       .  S
C1455      C1798   1.541       .  S
C1456      H1463   1.080       .  S
C1456      C1457   1.362       .  D
C1457      C1458   1.533       .  S
C1457      C1897   1.478       .  S
C1458      C1462   1.540       .  S
C1458      C1460   1.538       .  S
C1458      H1464   1.111       .  S
C1459      H1465   1.086       .  S
C1459      C1460   1.364       .  D
C1460      C1865   1.485       .  S
C1461      H1466   1.084       .  S
C1461      C1462   1.366       .  D
C1462      C1878   1.491       .  S
C1467      C1473   1.541       .  S
C1467      C1782   1.550       .  S
C1468      H1475   1.086       .  S
C1468      C1469   1.365       .  D
C1469      C1849   1.484       .  S
C1470      C1474   1.536       .  S
C1470      H1476   1.111       .  S
C1471      H1477   1.080       .  S
C1471      C1472   1.366       .  D
C1472      C1817   1.487       .  S
C1473      H1478   1.085       .  S
C1473      C1474   1.365       .  D
C1474      C1833   1.485       .  S
O1479      C1495   1.277       .  A
C1480      O1496   1.276       .  A
C1480      O1493   1.272       .  A
C1480      C1750   1.481       .  S
O1481      C1494   1.272       .  A
O1482      C1500   1.273       .  A
O1482     Cd1491   2.056       .  S
O1483      C1497   1.274       .  A
O1484      C1495   1.271       .  A
O1484     Cd1487   2.054       .  S
Zn1485     O1498   2.022       .  S
O1486      C1497   1.273       .  A
Cd1487     O1489   2.061       .  S
Cd1487     O1490   1.989       .  S
Cd1488     O1492   2.084       .  S
Cd1488     O1490   2.004       .  S
O1489      C1499   1.273       .  A
Cd1491     O1493   2.058       .  S
O1492      C1499   1.277       .  A
C1494      O1498   1.274       .  A
C1494      C1718   1.466       .  S
C1495      C1737   1.492       .  S
C1497      C1766   1.483       .  S
C1499      C1705   1.486       .  S
C1500      O1501   1.275       .  A
C1500      C1686   1.475       .  S
C1502      C1503   1.543       .  S
C1502      C1508   1.535       .  S
C1502      C1506   1.554       .  S
C1502      C1670   1.548       .  S
C1503      H1510   1.086       .  S
C1503      C1504   1.365       .  D
C1504      C1505   1.536       .  S
C1504      C1689   1.491       .  S
C1505      C1509   1.541       .  S
C1505      C1507   1.540       .  S
C1505      H1511   1.108       .  S
C1506      H1512   1.079       .  S
C1506      C1507   1.373       .  D
C1507      C1702   1.499       .  S
C1508      H1513   1.086       .  S
C1508      C1509   1.357       .  D
C1509      C1721   1.477       .  S
C1514      C1515   1.552       .  S
C1514      C1520   1.540       .  S
C1514      C1518   1.535       .  S
C1514      C1801   1.541       .  S
C1515      H1522   1.076       .  S
C1515      C1516   1.366       .  D
C1516      C1517   1.538       .  S
C1516      C1753   1.492       .  S
C1517      C1521   1.536       .  S
C1517      C1519   1.541       .  S
C1517      H1523   1.111       .  S
C1518      H1524   1.086       .  S
C1518      C1519   1.360       .  D
C1519      C1734   1.480       .  S
C1520      H1525   1.084       .  S
C1520      C1521   1.365       .  D
C1521      C1769   1.486       .  S
O1526      C1542   1.273       .  A
O1526     Zn1532   2.016       .  S
C1527      O1543   1.275       .  A
C1527      O1540   1.275       .  A
C1527      C1657   1.484       .  S
O1528      C1541   1.274       .  A
O1528     Cd1535   2.071       .  S
O1529      C1547   1.276       .  A
O1529     Cd1538   2.074       .  S
O1530      C1544   1.271       .  A
O1530     Cd1534   2.054       .  S
O1531      C1542   1.274       .  A
O1531     Cd1534   2.067       .  S
Zn1532     O1543   2.024       .  S
Zn1532     O1545   2.005       .  S
Zn1532     O1537   1.942       .  S
O1533      C1544   1.277       .  A
O1533     Cd1538   2.085       .  S
Cd1534     O1536   2.065       .  S
Cd1534     O1537   1.994       .  S
Cd1535     O1539   2.064       .  S
Cd1535     O1548   2.073       .  S
Cd1535     O1537   2.004       .  S
O1536      C1546   1.273       .  A
O1537     Cd1538   2.002       .  S
Cd1538     O1540   2.075       .  S
O1539      C1546   1.273       .  A
C1541      O1545   1.272       .  A
C1541      C1590   1.480       .  S
C1542      C1625   1.478       .  S
C1544      C1641   1.493       .  S
C1546      C1577   1.468       .  S
C1547      O1548   1.275       .  A
C1547      C1606   1.478       .  S
C1549      C1555   1.554       .  S
C1549      C1785   1.547       .  S
C1550      H1557   1.086       .  S
C1550      C1551   1.366       .  D
C1551      C1609   1.489       .  S
C1552      C1556   1.538       .  S
C1552      H1558   1.107       .  S
C1553      H1559   1.086       .  S
C1553      C1554   1.359       .  D
C1554      C1574   1.477       .  S
C1555      H1560   1.078       .  S
C1555      C1556   1.370       .  D
C1556      C1593   1.496       .  S
C1561      C1562   1.541       .  S
C1561      C1567   1.549       .  S
C1561      C1565   1.542       .  S
C1561      C1673   1.547       .  S
C1562      H1569   1.084       .  S
C1562      C1563   1.366       .  D
C1563      C1564   1.539       .  S
C1563      C1654   1.494       .  S
C1564      C1568   1.537       .  S
C1564      C1566   1.538       .  S
C1564      H1570   1.111       .  S
C1565      H1571   1.084       .  S
C1565      C1566   1.368       .  D
C1566      C1622   1.490       .  S
C1567      H1572   1.080       .  S
C1567      C1568   1.362       .  D
C1568      C1638   1.480       .  S
C1573      C1574   1.401       .  A
C1573      C1578   1.401       .  A
C1573      H1580   1.083       .  S
C1574      C1575   1.414       .  A
C1575      C1582   1.505   1_565  S
C1575      C1576   1.402       .  A
C1576      C1577   1.401       .  A
C1576      H1581   1.085       .  S
C1577      C1578   1.410       .  A
C1578      C1579   1.507       .  S
C1579      H1583   1.111       .  S
C1579      H1584   1.110       .  S
C1579      H1585   1.110       .  S
C1582      H1587   1.110       .  S
C1582      H1588   1.110       .  S
C1589      C1590   1.403       .  A
C1589      C1594   1.404       .  A
C1589      H1596   1.085       .  S
C1590      C1591   1.414       .  A
C1591      C1598   1.510       .  S
C1591      C1592   1.401       .  A
C1592      C1593   1.404       .  A
C1592      H1597   1.079       .  S
C1593      C1594   1.420       .  A
C1594      C1595   1.508       .  S
C1595      H1599   1.111       .  S
C1595      H1600   1.110       .  S
C1595      H1601   1.107       .  S
C1598      H1602   1.110       .  S
C1598      H1603   1.109       .  S
C1598      H1604   1.111       .  S
C1605      C1606   1.401       .  A
C1605      C1610   1.404       .  A
C1605      H1612   1.084       .  S
C1606      C1607   1.413       .  A
C1607      C1614   1.507       .  S
C1607      C1608   1.405       .  A
C1608      C1609   1.405       .  A
C1609      C1610   1.416       .  A
C1611      H1615   1.111       .  S
C1611      H1616   1.108       .  S
C1611      H1617   1.105       .  S
C1614      H1618   1.110       .  S
C1614      H1619   1.110       .  S
C1621      C1622   1.404       .  A
C1621      C1626   1.403       .  A
C1621      H1628   1.082       .  S
C1622      C1623   1.418       .  A
C1623      C1630   1.507       .  S
C1623      C1624   1.404       .  A
C1624      C1625   1.401       .  A
C1624      H1629   1.084       .  S
C1625      C1626   1.414       .  A
C1626      C1627   1.508       .  S
C1627      H1631   1.111       .  S
C1627      H1632   1.111       .  S
C1627      H1633   1.109       .  S
C1630      H1634   1.106       .  S
C1630      H1635   1.106       .  S
C1630      H1636   1.111       .  S
C1637      C1638   1.396       .  A
C1637      H1644   1.081       .  S
C1638      C1639   1.410       .  A
C1639      C1646   1.508       .  S
C1639      C1640   1.405       .  A
C1640      H1645   1.084       .  S
C1641      C1642   1.424   1_565  A
C1642      C1643   1.510       .  S
C1643      H1647   1.111       .  S
C1643      H1648   1.110       .  S
C1643      H1649   1.110   1_545  S
C1646      H1650   1.107       .  S
C1646      H1651   1.109       .  S
C1646      H1652   1.111       .  S
C1653      C1654   1.404       .  A
C1653      C1658   1.404       .  A
C1653      H1660   1.078       .  S
C1654      C1655   1.419       .  A
C1655      C1662   1.507       .  S
C1656      C1657   1.403       .  A
C1656      H1661   1.084       .  S
C1658      C1659   1.509       .  S
C1659      H1663   1.111       .  S
C1659      H1664   1.109   1_655  S
C1659      H1665   1.110       .  S
C1662      H1666   1.106       .  S
C1662      H1667   1.106       .  S
C1662      H1668   1.111       .  S
C1669      C1670   1.409       .  A
C1669      C1674   1.405       .  A
C1669      H1676   1.074       .  S
C1670      C1671   1.427       .  A
C1671      C1678   1.518       .  S
C1671      C1672   1.407       .  A
C1672      C1673   1.410       .  A
C1672      H1677   1.073       .  S
C1673      C1674   1.425       .  A
C1674      C1675   1.513       .  S
C1675      H1679   1.110       .  S
C1675      H1680   1.100       .  S
C1675      H1681   1.111       .  S
C1678      H1682   1.105       .  S
C1678      H1683   1.105       .  S
C1678      H1684   1.111       .  S
C1685      C1686   1.398       .  A
C1685      C1690   1.400       .  A
C1685      H1692   1.085       .  S
C1686      C1687   1.412       .  A
C1687      C1694   1.506       .  S
C1687      C1688   1.408       .  A
C1688      C1689   1.407       .  A
C1688      H1693   1.084       .  S
C1689      C1690   1.415       .  A
C1690      C1691   1.500       .  S
C1691      H1695   1.111       .  S
C1691      H1696   1.105       .  S
C1691      H1697   1.107       .  S
C1694      H1698   1.110       .  S
C1694      H1699   1.110       .  S
C1694      H1700   1.111       .  S
C1701      C1702   1.405       .  A
C1701      C1706   1.404       .  A
C1701      H1708   1.081       .  S
C1702      C1703   1.419       .  A
C1703      C1710   1.508       .  S
C1703      C1704   1.404       .  A
C1704      C1705   1.404       .  A
C1704      H1709   1.085       .  S
C1705      C1706   1.417       .  A
C1706      C1707   1.509       .  S
C1707      H1711   1.111       .  S
C1707      H1712   1.109       .  S
C1710      H1714   1.107       .  S
C1710      H1715   1.110       .  S
C1710      H1716   1.111       .  S
C1717      C1718   1.401       .  A
C1717      C1722   1.404       .  A
C1717      H1724   1.084       .  S
C1718      C1719   1.410       .  A
C1719      C1726   1.507       .  S
C1719      C1720   1.400       .  A
C1720      C1721   1.400       .  A
C1720      H1725   1.080       .  S
C1721      C1722   1.411       .  A
C1722      C1723   1.505       .  S
C1723      H1727   1.111       .  S
C1723      H1728   1.100       .  S
C1723      H1729   1.110       .  S
C1726      H1730   1.110       .  S
C1733      C1734   1.396       .  A
C1733      C1738   1.402       .  A
C1733      H1740   1.080       .  S
C1734      C1735   1.411       .  A
C1735      C1742   1.506       .  S
C1735      C1736   1.406       .  A
C1736      C1737   1.408       .  A
C1736      H1741   1.084       .  S
C1737      C1738   1.423       .  A
C1738      C1739   1.510       .  S
C1739      H1743   1.111       .  S
C1739      H1744   1.110       .  S
C1739      H1745   1.110       .  S
C1742      H1746   1.108       .  S
C1742      H1747   1.108       .  S
C1742      H1748   1.111   1_565  S
C1749      C1750   1.401       .  A
C1749      C1754   1.403       .  A
C1749      H1756   1.084       .  S
C1750      C1751   1.415       .  A
C1751      C1758   1.509       .  S
C1751      C1752   1.403       .  A
C1752      C1753   1.402       .  A
C1752      H1757   1.078       .  S
C1753      C1754   1.420       .  A
C1754      C1755   1.508       .  S
C1755      H1759   1.111       .  S
C1755      H1760   1.104       .  S
C1755      H1761   1.106       .  S
C1758      H1762   1.110       .  S
C1758      H1763   1.109       .  S
C1758      H1764   1.111       .  S
C1765      C1766   1.403       .  A
C1765      C1770   1.402       .  A
C1765      H1772   1.084       .  S
C1766      C1767   1.417       .  A
C1767      C1774   1.508       .  S
C1767      C1768   1.403       .  A
C1768      C1769   1.403       .  A
C1768      H1773   1.083       .  S
C1769      C1770   1.416       .  A
C1770      C1771   1.506       .  S
C1771      H1775   1.111       .  S
C1771      H1776   1.106       .  S
C1771      H1777   1.104       .  S
C1774      H1778   1.110   1_565  S
C1774      H1779   1.110       .  S
C1774      H1780   1.111       .  S
C1781      C1786   1.407   1_556  A
C1781      H1788   1.073       .  S
C1782      C1783   1.426       .  A
C1783      C1790   1.515       .  S
C1783      C1784   1.406   1_556  A
C1784      C1785   1.409       .  A
C1784      H1789   1.072       .  S
C1786      C1787   1.518       .  S
C1787      H1791   1.110       .  S
C1787      H1792   1.105       .  S
C1787      H1793   1.105       .  S
C1790      H1794   1.102       .  S
C1790      H1795   1.104       .  S
C1790      H1796   1.111       .  S
C1797      C1798   1.409       .  A
C1797      C1802   1.402       .  A
C1797      H1804   1.074       .  S
C1798      C1799   1.425       .  A
C1799      C1806   1.514       .  S
C1799      C1800   1.402       .  A
C1800      C1801   1.409       .  A
C1800      H1805   1.074       .  S
C1801      C1802   1.425       .  A
C1802      C1803   1.514       .  S
C1803      H1807   1.111       .  S
C1803      H1808   1.111       .  S
C1803      H1809   1.100       .  S
C1806      H1810   1.100       .  S
C1806      H1811   1.111       .  S
C1806      H1812   1.111       .  S
C1813      C1814   1.403       .  A
C1813      C1818   1.401       .  A
C1813      H1820   1.085       .  S
C1814      C1815   1.420       .  A
C1815      C1822   1.508       .  S
C1815      C1816   1.405       .  A
C1816      C1817   1.402       .  A
C1816      H1821   1.084       .  S
C1817      C1818   1.416       .  A
C1819      H1823   1.110       .  S
C1819      H1824   1.111       .  S
C1819      H1825   1.096       .  S
C1822      H1826   1.110       .  S
C1822      H1827   1.110       .  S
C1822      H1828   1.111       .  S
C1829      C1830   1.404       .  A
C1829      C1834   1.403       .  A
C1829      H1836   1.085       .  S
C1830      C1831   1.417       .  A
C1831      C1838   1.509       .  S
C1831      C1832   1.402       .  A
C1832      C1833   1.402       .  A
C1832      H1837   1.084       .  S
C1833      C1834   1.419       .  A
C1835      H1839   1.111   1_545  S
C1835      H1840   1.105   1_545  S
C1835      H1841   1.110       .  S
C1838      H1842   1.110       .  S
C1838      H1843   1.109       .  S
C1838      H1844   1.111       .  S
C1845      C1846   1.407       .  A
C1845      C1850   1.405       .  A
C1845      H1852   1.084       .  S
C1846      C1847   1.423       .  A
C1847      C1854   1.508       .  S
C1847      C1848   1.407       .  A
C1848      C1849   1.399       .  A
C1849      C1850   1.412       .  A
C1851      H1855   1.111       .  S
C1851      H1856   1.110       .  S
C1851      H1857   1.105       .  S
C1854      H1858   1.110       .  S
C1854      H1859   1.109       .  S
C1861      C1862   1.401       .  A
C1861      C1866   1.404       .  A
C1861      H1868   1.085       .  S
C1862      C1863   1.415       .  A
C1863      C1870   1.509       .  S
C1863      C1864   1.403       .  A
C1864      C1865   1.403       .  A
C1864      H1869   1.084       .  S
C1865      C1866   1.420       .  A
C1866      C1867   1.509       .  S
C1867      H1871   1.111       .  S
C1867      H1872   1.104       .  S
C1867      H1873   1.110       .  S
C1870      H1874   1.109       .  S
C1870      H1875   1.110       .  S
C1870      H1876   1.111       .  S
C1877      C1878   1.403       .  A
C1877      C1882   1.404       .  A
C1877      H1884   1.079       .  S
C1878      C1879   1.418       .  A
C1879      C1886   1.508       .  S
C1880      C1881   1.403       .  A
C1880      H1885   1.084       .  S
C1882      C1883   1.508       .  S
C1883      H1887   1.111       .  S
C1883      H1888   1.109       .  S
C1883      H1889   1.110       .  S
C1886      H1890   1.111       .  S
C1886      H1891   1.106       .  S
C1893      C1898   1.403   1_545  A
C1895      C1896   1.403       .  A
C1896      C1897   1.400       .  A
C1896      H1901   1.081       .  S
C1897      C1898   1.412       .  A
C1898      C1899   1.504       .  S
C1899      H1903   1.111       .  S
C1899      H1904   1.110       .  S
C1899      H1905   1.109       .  S
C1902      H1906   1.110       .  S
C1902      H1907   1.110       .  S
