geometry optimzed in LAMMPS
_audit_creation_date              2020-11-30 
_audit_creation_method            'lammps2cif' 
_symmetry_space_group_name_H-M    'P1' 
_symmetry_Int_Tables_number       1 
_symmetry_cell_setting            triclinic 
loop_ 
_symmetry_equiv_pos_as_xyz 
  x,y,z 
_cell_length_a                    40.74335179 
_cell_length_b                    40.723254598921166 
_cell_length_c                    40.694939588944465 
_cell_angle_alpha                 89.96907125412507 
_cell_angle_beta                  89.94606517510924 
_cell_angle_gamma                 89.94313170677403 
loop_ 
_atom_site_label 
_atom_site_type_symbol 
_atom_site_fract_x 
_atom_site_fract_y 
_atom_site_fract_z 
_atom_site_charge 
O1          O  0.83867270  0.91565563  0.62104014    -0.85300
O2          O  0.82349884  0.86224938  0.58193337    -0.82400
C3          C  0.85015697  0.85535329  0.56767615     0.98100
O4          O  0.87395173  0.84420856  0.58408962    -0.82400
O5          O  0.91270686  0.82903249  0.63751473    -0.85100
C6          C  0.92677777  0.85536508  0.64614672     1.02700
O7          O  0.91057378  0.87815582  0.65916384    -0.77800
O8          O  0.85777094  0.91722642  0.67152638    -0.78000
C9          C  0.85094326  0.93152557  0.64466658     1.02600
O10         O  0.79743686  0.89046474  0.67151688    -0.85300
O11         O  0.78853421  0.83413763  0.63604950    -0.82400
C12         C  0.79497848  0.80711271  0.62234037     0.98200
O13         O  0.82287523  0.80252533  0.60948804    -0.82400
O14         O  0.85904430  0.79224900  0.66470525    -0.85000
C15         C  0.87126429  0.79793755  0.69253182     1.02600
O16         O  0.88302105  0.82603618  0.69892467    -0.77800
O17         O  0.82785438  0.86378934  0.70692101    -0.78000
C18         C  0.80170652  0.87860180  0.69982047     1.02600
Cr19       Cr  0.81473989  0.87416965  0.62874841     1.93700
Cr20       Cr  0.86614858  0.81972040  0.62538779     1.93200
Cr21       Cr  0.86843102  0.87014195  0.68136962     1.39100
O22         O  0.85000796  0.85483229  0.64508059    -1.23100
O23         O  0.62487727  0.84157626  0.91000088    -0.85300
O24         O  0.58536487  0.83079187  0.85633596    -0.82400
C25         C  0.57164871  0.85790143  0.84956733     0.98100
O26         O  0.58831032  0.88142126  0.83833943    -0.82400
O27         O  0.64243079  0.91979219  0.82659912    -0.85100
C28         C  0.65000288  0.93243983  0.85401971     1.02700
O29         O  0.66189779  0.91492491  0.87659397    -0.77800
O30         O  0.67546943  0.85929671  0.91252743    -0.78000
C31         C  0.64859042  0.85235952  0.92661983     1.02600
O32         O  0.67541601  0.80091682  0.88131688    -0.85300
O33         O  0.63811175  0.79538163  0.82591906    -0.82400
C34         C  0.62421174  0.80290015  0.79930888     0.98200
O35         O  0.61342759  0.83170967  0.79503734    -0.82400
O36         O  0.66993833  0.86735368  0.78794876    -0.85000
C37         C  0.69700295  0.88051397  0.79490865     1.02600
O38         O  0.70200071  0.89128256  0.82361900    -0.77800
O39         O  0.71007286  0.83342797  0.85629900    -0.78000
C40         C  0.70340136  0.80593002  0.86870286     1.02600
Cr41       Cr  0.63208175  0.81990106  0.86712159     1.93700
Cr42       Cr  0.62994377  0.87383763  0.81463208     1.93200
Cr43       Cr  0.68461687  0.87339933  0.86615291     1.39100
O44         O  0.64861326  0.85590744  0.84949238    -1.23100
O45         O  0.91329724  0.64093281  0.82248409    -0.85300
O46         O  0.87490464  0.58926205  0.83981685    -0.82400
C47         C  0.85288623  0.57270086  0.85379512     0.98100
O48         O  0.82577775  0.58579478  0.86155793    -0.82400
O49         O  0.84097555  0.62677880  0.91229942    -0.85100
C50         C  0.85270839  0.65075561  0.92781450     1.02700
O51         O  0.85970955  0.67700607  0.91268392    -0.77800
O52         O  0.91177149  0.66090488  0.87242023    -0.78000
C53         C  0.92768517  0.64807259  0.84911523     1.02600
O54         O  0.85783101  0.66884317  0.78739577    -0.85300
O55         O  0.82209449  0.61313873  0.79939756    -0.82400
C56         C  0.79378697  0.62465744  0.80509906     0.98200
O57         O  0.78758510  0.63802876  0.83229573    -0.82400
O58         O  0.79832055  0.67698876  0.88597466    -0.85000
C59         C  0.80321829  0.70472742  0.87277045     1.02600
O60         O  0.83004084  0.71071379  0.85848410    -0.77800
O61         O  0.88493601  0.70120843  0.82048674    -0.78000
C62         C  0.87214698  0.69577149  0.79262736     1.02600
Cr63       Cr  0.86584018  0.62947820  0.81491953     1.93700
Cr64       Cr  0.81584116  0.63305532  0.87144287     1.93200
Cr65       Cr  0.87021125  0.68478403  0.86503291     1.39100
O66         O  0.85056046  0.64907725  0.85047412    -1.23100
O67         O  0.66276310  0.59305952  0.62000329    -0.85300
O68         O  0.67271609  0.64963730  0.58436264    -0.82400
C69         C  0.64538858  0.65444595  0.57041219     0.98100
O70         O  0.62120842  0.66446808  0.58693029    -0.82400
O71         O  0.58150138  0.67406813  0.64078872    -0.85100
C72         C  0.56900034  0.64653002  0.64788543     1.02700
O73         O  0.58660476  0.62405315  0.65993089    -0.77800
O74         O  0.64289794  0.58787906  0.66980631    -0.78000
C75         C  0.65137122  0.57526056  0.64262630     1.02600
O76         O  0.70241496  0.61892300  0.67231354    -0.85300
O77         O  0.70654633  0.67719635  0.63937552    -0.82400
C78         C  0.69797150  0.70429520  0.62727070     0.98200
O79         O  0.66954077  0.70826050  0.61543534    -0.82400
O80         O  0.63248604  0.71234822  0.67050202    -0.85000
C81         C  0.62151296  0.70364533  0.69806062     1.02600
O82         O  0.61202547  0.67448946  0.70292443    -0.77800
O83         O  0.66910842  0.64040234  0.70849832    -0.78000
C84         C  0.69670820  0.62846257  0.70129410     1.02600
Cr85       Cr  0.68312547  0.63597568  0.63024824     1.93700
Cr86       Cr  0.62752513  0.68696059  0.62969078     1.93200
Cr87       Cr  0.62891572  0.63304988  0.68248128     1.39100
O88         O  0.64629521  0.65184186  0.64738139    -1.23100
O89         O  0.92004640  0.16231470  0.62345676    -0.85300
O90         O  0.86548942  0.17462771  0.58534525    -0.82400
C91         C  0.85615517  0.14804479  0.57233482     0.98100
O92         O  0.84359251  0.12556498  0.58953707    -0.82400
O93         O  0.83304363  0.08706935  0.64394448    -0.85100
C94         C  0.85984048  0.07275168  0.65052930     1.02700
O95         O  0.88379562  0.08884185  0.66173783    -0.77800
O96         O  0.92341090  0.14276701  0.67344364    -0.78000
C97         C  0.93697865  0.15064181  0.64662575     1.02600
O98         O  0.89398771  0.20420621  0.67405722    -0.85300
O99         O  0.83785637  0.21235765  0.63844950    -0.82400
C100        C  0.80977545  0.20530267  0.62759745     0.98200
O101        O  0.80354240  0.17655059  0.61777397    -0.82400
O102        O  0.79827312  0.14048847  0.67385640    -0.85000
C103        C  0.80639048  0.12741393  0.70064822     1.02600
O104        O  0.83494756  0.11608840  0.70473023    -0.77800
O105        O  0.87130501  0.17170756  0.71050295    -0.78000
C106        C  0.88334255  0.19911577  0.70278278     1.02600
Cr107      Cr  0.87785633  0.18540059  0.63164909     1.93700
Cr108      Cr  0.82267805  0.13367652  0.63257189     1.93200
Cr109      Cr  0.87708900  0.13132097  0.68463639     1.39100
O110        O  0.85935274  0.15002322  0.64939856    -1.23100
O111        O  0.86574841  0.41856833  0.82564626    -0.85300
O112        O  0.91896775  0.37826859  0.83552798    -0.82400
C113        C  0.93525155  0.35455637  0.84690199     0.98100
O114        O  0.92070659  0.32871790  0.85651502    -0.82400
O115        O  0.88285015  0.34247572  0.91120356    -0.85100
C116        C  0.85964392  0.35339694  0.92848835     1.02700
O117        O  0.83290967  0.36179895  0.91499192    -0.77800
O118        O  0.84840121  0.41539479  0.87657148    -0.78000
C119        C  0.85968688  0.43205806  0.85301987     1.02600
O120        O  0.83435681  0.36605217  0.79039069    -0.85300
O121        O  0.88952171  0.32818805  0.79605676    -0.82400
C122        C  0.87936978  0.29951620  0.80242114     0.98200
O123        O  0.86641736  0.29312015  0.82970883    -0.82400
O124        O  0.83021378  0.30276010  0.88509852    -0.85000
C125        C  0.80192869  0.30841970  0.87333037     1.02600
O126        O  0.79568452  0.33599656  0.86078205    -0.77800
O127        O  0.80469353  0.39290239  0.82603332    -0.78000
C128        C  0.80833746  0.38121432  0.79749067     1.02600
Cr129      Cr  0.87573567  0.37163674  0.81469488     1.93700
Cr130      Cr  0.87392879  0.31963804  0.86933013     1.93200
Cr131      Cr  0.82315597  0.37506503  0.86838472     1.39100
O132        O  0.85788048  0.35553826  0.85090531    -1.23100
O133        O  0.62769166  0.09070909  0.84001991    -0.85300
O134        O  0.59129631  0.14565908  0.82566623    -0.82400
C135        C  0.57756280  0.15357806  0.85245329     0.98100
O136        O  0.59428423  0.16468129  0.87591437    -0.82400
O137        O  0.64839965  0.17609697  0.91437314    -0.85100
C138        C  0.65515873  0.14905930  0.92826598     1.02700
O139        O  0.66707175  0.12566888  0.91197182    -0.77800
O140        O  0.67798831  0.08621712  0.85874950    -0.78000
C141        C  0.65049603  0.07343058  0.85175264     1.02600
O142        O  0.67960743  0.11340948  0.79819629    -0.85300
O143        O  0.64603105  0.17094966  0.78922468    -0.82400
C144        C  0.63343681  0.19844973  0.79564772     0.98200
O145        O  0.62190092  0.20406807  0.82403150    -0.82400
O146        O  0.67747018  0.21070498  0.86005500    -0.85000
C147        C  0.70450933  0.20412975  0.87341174     1.02600
O148        O  0.70954154  0.17568413  0.88499393    -0.77800
O149        O  0.71524012  0.13857556  0.82927855    -0.78000
C150        C  0.70815948  0.12465221  0.80259184     1.02600
Cr151      Cr  0.63734070  0.13154179  0.81600055     1.93700
Cr152      Cr  0.63685563  0.18611953  0.86754103     1.93200
Cr153      Cr  0.68981185  0.13273474  0.86987690     1.39100
O154        O  0.65446205  0.14992994  0.85140887    -1.23100
O155        O  0.67798976  0.36315005  0.58172699    -0.85300
O156        O  0.66550095  0.41688036  0.62107437    -0.82400
C157        C  0.65467961  0.43345436  0.64491109     0.98100
O158        O  0.64920592  0.41971105  0.67219092    -0.82400
O159        O  0.59507756  0.38016013  0.66232603    -0.85100
C160        C  0.57849381  0.35651119  0.65120846     1.02700
O161        O  0.59266765  0.32991885  0.64309564    -0.77800
O162        O  0.62955545  0.34015565  0.58698716    -0.78000
C163        C  0.65155327  0.35274066  0.56918742     1.02600
O164        O  0.71842786  0.33610967  0.63267296    -0.85300
O165        O  0.71044288  0.39142234  0.66984868    -0.82400
C166        C  0.70653178  0.38076962  0.69883299     0.98200
O167        O  0.67992932  0.36762224  0.70747829    -0.82400
O168        O  0.62404850  0.33056297  0.70329463    -0.85000
C169        C  0.63570240  0.30227290  0.69823193     1.02600
O170        O  0.64825730  0.29544403  0.67083163    -0.77800
O171        O  0.68207822  0.30129178  0.61369069    -0.78000
C172        C  0.71123295  0.30794860  0.62210329     1.02600
Cr173      Cr  0.69019579  0.37546264  0.62777708     1.93700
Cr174      Cr  0.63848048  0.37320886  0.68321322     1.93200
Cr175      Cr  0.63929943  0.31972550  0.63001540     1.39100
O176        O  0.65587258  0.35625654  0.64674573    -1.23100
O177        O  0.08400125  0.83897626  0.62123864    -0.85300
O178        O  0.13688158  0.82508503  0.58239812    -0.82400
C179        C  0.14344568  0.85224356  0.56878129     0.98100
O180        O  0.15527133  0.87549536  0.58547844    -0.82400
O181        O  0.17131708  0.91366619  0.63896124    -0.85100
C182        C  0.14517337  0.92864772  0.64643044     1.02700
O183        O  0.12134078  0.91294056  0.65827265    -0.77800
O184        O  0.08131862  0.86005519  0.67089445    -0.78000
C185        C  0.06763576  0.85142994  0.64429663     1.02600
O186        O  0.10904707  0.79818604  0.67235590    -0.85300
O187        O  0.16517717  0.78907024  0.63653279    -0.82400
C188        C  0.19179223  0.79564196  0.62228228     0.98200
O189        O  0.19635671  0.82387016  0.61020033    -0.82400
O190        O  0.20622244  0.85948428  0.66631717    -0.85000
C191        C  0.20052991  0.87308303  0.69358610     1.02600
O192        O  0.17221501  0.88470483  0.69954843    -0.77800
O193        O  0.13324344  0.83044335  0.70799187    -0.78000
C194        C  0.11941935  0.80369817  0.70107453     1.02600
Cr195      Cr  0.12526718  0.81559127  0.62938492     1.93700
Cr196      Cr  0.17954582  0.86702086  0.62663570     1.93200
Cr197      Cr  0.12817684  0.87059425  0.68139964     1.39100
O198        O  0.14416254  0.85115171  0.64584581    -1.23100
O199        O  0.36050642  0.91643806  0.82241671    -0.85300
O200        O  0.41367160  0.87731335  0.83690603    -0.82400
C201        C  0.43013446  0.85403390  0.84899426     0.98100
O202        O  0.41643579  0.82683902  0.85508638    -0.82400
O203        O  0.37628429  0.84035028  0.90831137    -0.85100
C204        C  0.35235057  0.85177507  0.92448758     1.02700
O205        O  0.32588524  0.85927499  0.90989544    -0.77800
O206        O  0.33861013  0.91338501  0.87152525    -0.78000
C207        C  0.35150996  0.93017019  0.84896998     1.02600
O208        O  0.33353414  0.86265907  0.78445971    -0.85300
O209        O  0.38851327  0.82627336  0.79397388    -0.82400
C210        C  0.37552760  0.79826233  0.79803560     0.98200
O211        O  0.36274150  0.79126582  0.82538774    -0.82400
O212        O  0.32648955  0.79916313  0.88150974    -0.85000
C213        C  0.29847208  0.80357059  0.86910095     1.02600
O214        O  0.29189705  0.83027937  0.85494004    -0.77800
O215        O  0.29980034  0.88631748  0.81882342    -0.78000
C216        C  0.30582110  0.87487916  0.79047531     1.02600
Cr217      Cr  0.37268043  0.86957127  0.81217002     1.93700
Cr218      Cr  0.36944422  0.81717143  0.86607060     1.93200
Cr219      Cr  0.31685270  0.87094789  0.86268970     1.39100
O220        O  0.35318520  0.85284583  0.84720767    -1.23100
O221        O  0.17484970  0.64672184  0.91294906    -0.85300
O222        O  0.16261578  0.59086947  0.87633630    -0.82400
C223        C  0.14983934  0.57327060  0.85423070     0.98100
O224        O  0.14132758  0.58581766  0.82706606    -0.82400
O225        O  0.08645786  0.62431985  0.83803034    -0.85100
C226        C  0.06972691  0.64752382  0.85013665     1.02700
O227        O  0.08339944  0.67427788  0.85760027    -0.77800
O228        O  0.12398079  0.66368980  0.91082142    -0.78000
C229        C  0.14808608  0.65322031  0.92725588     1.02600
O230        O  0.20825970  0.67439790  0.85749074    -0.85300
O231        O  0.20252590  0.61675039  0.82415827    -0.82400
C232        C  0.19721156  0.62738232  0.79552783     0.98200
O233        O  0.16920217  0.63826549  0.78805034    -0.82400
O234        O  0.11264426  0.67355845  0.79470743    -0.85000
C235        C  0.12213588  0.70266214  0.79961064     1.02600
O236        O  0.13433503  0.71094588  0.82676946    -0.77800
O237        O  0.17206738  0.70635953  0.88131035    -0.78000
C238        C  0.20022521  0.70186857  0.86918749     1.02600
Cr239      Cr  0.18399673  0.63348162  0.86648716     1.93700
Cr240      Cr  0.12889700  0.63178578  0.81483526     1.93200
Cr241      Cr  0.12975009  0.68580061  0.86778508     1.39100
O242        O  0.14731412  0.65018456  0.84980981    -1.23100
O243        O  0.32462046  0.64398223  0.57832336    -0.85300
O244        O  0.33577218  0.58957234  0.61667757    -0.82400
C245        C  0.34761570  0.57280608  0.63981993     0.98100
O246        O  0.35576921  0.58627994  0.66664160    -0.82400
O247        O  0.41022602  0.62441577  0.65429351    -0.85100
C248        C  0.42739255  0.64718762  0.64211182     1.02700
O249        O  0.41427774  0.67443066  0.63481741    -0.77800
O250        O  0.37511151  0.66209440  0.58187743    -0.78000
C251        C  0.35189252  0.65068182  0.56505678     1.02600
O252        O  0.28951589  0.67269129  0.63237485    -0.85300
O253        O  0.29520084  0.61648228  0.66764290    -0.82400
C254        C  0.29993936  0.62792524  0.69610304     0.98200
O255        O  0.32750391  0.64002470  0.70334276    -0.82400
O256        O  0.38406265  0.67528309  0.69602529    -0.85000
C257        C  0.37380462  0.70415748  0.69087847     1.02600
O258        O  0.36168904  0.71202291  0.66354945    -0.77800
O259        O  0.32484975  0.70490255  0.60789644    -0.78000
C260        C  0.29639692  0.69981190  0.61931270     1.02600
Cr261      Cr  0.31418559  0.63213078  0.62492539     1.93700
Cr262      Cr  0.36806070  0.63271682  0.67730879     1.93200
Cr263      Cr  0.36763628  0.68551129  0.62340950     1.39100
O264        O  0.35014282  0.64997574  0.64176258    -1.23100
O265        O  0.14611049  0.17372855  0.58441698    -0.85300
O266        O  0.09483861  0.16076953  0.62565247    -0.82400
C267        C  0.07896526  0.14826947  0.64911406     0.98100
O268        O  0.09354005  0.14047152  0.67544943    -0.82400
O269        O  0.13150800  0.08726711  0.65897057    -0.85100
C270        C  0.15419034  0.07050075  0.64622636     1.02700
O271        O  0.18092281  0.08417180  0.63824734    -0.77800
O272        O  0.16443994  0.12318800  0.58522160    -0.78000
C273        C  0.15138275  0.14674530  0.56986266     1.02600
O274        O  0.17810329  0.20868368  0.63651621    -0.85300
O275        O  0.12374629  0.20119183  0.67583665    -0.82400
C276        C  0.13619262  0.19550481  0.70376057     0.98200
O277        O  0.14929301  0.16807856  0.70947735    -0.82400
O278        O  0.18473460  0.11245821  0.69793166    -0.85000
C279        C  0.21250846  0.12515644  0.69226805     1.02600
O280        O  0.21831694  0.13794737  0.66468060    -0.77800
O281        O  0.20811578  0.17384248  0.60881411    -0.78000
C282        C  0.20406347  0.20219253  0.62085667     1.02600
Cr283      Cr  0.13709313  0.18343538  0.63169699     1.93700
Cr284      Cr  0.14084120  0.12846767  0.68270227     1.93200
Cr285      Cr  0.19032023  0.13087934  0.62578904     1.39100
O286        O  0.15593483  0.14751028  0.64663826    -1.23100
O287        O  0.41920016  0.37896355  0.65645247    -0.85300
O288        O  0.36609590  0.41953471  0.66765949    -0.82400
C289        C  0.35702982  0.43192780  0.64065130     0.98100
O290        O  0.34487601  0.41420432  0.61845793    -0.82400
O291        O  0.33359061  0.35927796  0.58148058    -0.85100
C292        C  0.36052724  0.35082183  0.56833457     1.02700
O293        O  0.38330841  0.33883443  0.58552958    -0.77800
O294        O  0.42170638  0.32780148  0.64029105    -0.78000
C295        C  0.43580981  0.35480535  0.64639793     1.02600
O296        O  0.39170729  0.33098896  0.70090738    -0.85300
O297        O  0.33700205  0.36921395  0.70732458    -0.82400
C298        C  0.30933278  0.38049047  0.69935768     0.98200
O299        O  0.30346595  0.38904391  0.67004282    -0.82400
O300        O  0.29602106  0.33233221  0.63529593    -0.85000
C301        C  0.30268373  0.30510584  0.62230750     1.02600
O302        O  0.33172802  0.29926700  0.61279497    -0.77800
O303        O  0.36728719  0.29416846  0.67011334    -0.78000
C304        C  0.38012008  0.30242761  0.69705457     1.02600
Cr305      Cr  0.37707576  0.37325372  0.68015222     1.93700
Cr306      Cr  0.32246298  0.37231186  0.62772184     1.93200
Cr307      Cr  0.37473298  0.31800219  0.62857964     1.39100
O308        O  0.35812189  0.35467137  0.64544556    -1.23100
O309        O  0.34706748  0.08901281  0.87455475    -0.85300
O310        O  0.33424559  0.14344193  0.91318437    -0.82400
C311        C  0.36076458  0.15196930  0.92700570     0.98100
O312        O  0.38385451  0.16405509  0.91024138    -0.82400
O313        O  0.42193724  0.17629872  0.85541125    -0.85100
C314        C  0.43620391  0.14961822  0.84820563     1.02700
O315        O  0.42001459  0.12572190  0.83705017    -0.77800
O316        O  0.36642657  0.08619499  0.82441785    -0.78000
C317        C  0.35874126  0.07232582  0.85111816     1.02600
O318        O  0.30501714  0.11495711  0.82420021    -0.85300
O319        O  0.29677029  0.17124719  0.86020842    -0.82400
C320        C  0.30380886  0.19859197  0.87286060     0.98200
O321        O  0.33246179  0.20377491  0.88353245    -0.82400
O322        O  0.36769778  0.21106894  0.82662466    -0.85000
C323        C  0.38113825  0.20393958  0.79962238     1.02600
O324        O  0.39310104  0.17563984  0.79533511    -0.77800
O325        O  0.33734056  0.13938978  0.78895516    -0.78000
C326        C  0.31013308  0.12636419  0.79578747     1.02600
Cr327      Cr  0.32363829  0.13108095  0.86685275     1.93700
Cr328      Cr  0.37533276  0.18592214  0.86754920     1.93200
Cr329      Cr  0.37776900  0.13288829  0.81430658     1.39100
O330        O  0.35911816  0.14970806  0.84984616    -1.23100
O331        O  0.09411169  0.37692368  0.83863200    -0.85300
O332        O  0.14695831  0.41818850  0.82769619    -0.82400
C333        C  0.15554771  0.43156573  0.85454305     0.98100
O334        O  0.16841451  0.41465163  0.87698852    -0.82400
O335        O  0.17883274  0.36011757  0.91498968    -0.85100
C336        C  0.15153674  0.35202393  0.92779703     1.02700
O337        O  0.12884234  0.34038017  0.91039951    -0.77800
O338        O  0.09250676  0.32598989  0.85532444    -0.78000
C339        C  0.07787591  0.35248217  0.84861779     1.02600
O340        O  0.12297178  0.32758378  0.79621970    -0.85300
O341        O  0.17749142  0.36634665  0.78979965    -0.82400
C342        C  0.20506424  0.37834748  0.79696634     0.98200
O343        O  0.21035403  0.38859500  0.82590939    -0.82400
O344        O  0.21725715  0.33230026  0.86193723    -0.85000
C345        C  0.21002158  0.30538299  0.87524341     1.02600
O346        O  0.18149389  0.30076915  0.88646566    -0.77800
O347        O  0.14831415  0.29304482  0.82879336    -0.78000
C348        C  0.13493485  0.29929120  0.80162264     1.02600
Cr349      Cr  0.13679327  0.37118443  0.81585204     1.93700
Cr350      Cr  0.19090906  0.37251457  0.86866792     1.93200
Cr351      Cr  0.13900753  0.31799635  0.86886851     1.39100
O352        O  0.15542756  0.35423325  0.85125115    -1.23100
O353        O  0.83893097  0.87458947  0.40942742    -0.85300
O354        O  0.82508493  0.91414388  0.35724953    -0.82400
C355        C  0.85201209  0.92829194  0.35086918     0.98100
O356        O  0.87529161  0.91257815  0.33772726    -0.82400
O357        O  0.91548831  0.86076898  0.32287384    -0.85100
C358        C  0.92885975  0.85466331  0.35022501     1.02700
O359        O  0.91255094  0.84212683  0.37328425    -0.77800
O360        O  0.86051540  0.82536606  0.41205220    -0.78000
C361        C  0.85184273  0.85180842  0.42588128     1.02600
O362        O  0.79995356  0.82269372  0.38208432    -0.85300
O363        O  0.79078614  0.85990159  0.32683460    -0.82400
C364        C  0.79735723  0.87396750  0.30002718     0.98200
O365        O  0.82526165  0.88670194  0.29576401    -0.82400
O366        O  0.86212711  0.83090564  0.28670237    -0.85000
C367        C  0.87540597  0.80374921  0.29360510     1.02600
O368        O  0.88866447  0.79981443  0.32148365    -0.77800
O369        O  0.83383475  0.78878606  0.35782421    -0.78000
C370        C  0.80640756  0.79443004  0.37081875     1.02600
Cr371      Cr  0.81634204  0.86674667  0.36744714     1.93700
Cr372      Cr  0.86844167  0.87124482  0.31336404     1.93200
Cr373      Cr  0.87247600  0.81672030  0.36498522     1.39100
O374        O  0.85243308  0.85165724  0.34872220    -1.23100
O375        O  0.87529372  0.58446155  0.15872102    -0.85300
O376        O  0.91258622  0.63987199  0.17083330    -0.82400
C377        C  0.92562222  0.64920107  0.14410118     0.98100
O378        O  0.90828413  0.66116820  0.12141062    -0.82400
O379        O  0.85275278  0.67248146  0.08461406    -0.85100
C380        C  0.84783573  0.64565599  0.06986925     1.02700
O381        O  0.83720606  0.62118770  0.08562990    -0.77800
O382        O  0.82560814  0.58068573  0.13878162    -0.78000
C383        C  0.85246990  0.56739034  0.14649595     1.02600
O384        O  0.82468661  0.60887464  0.20134697    -0.85300
O385        O  0.85943843  0.66657451  0.20944832    -0.82400
C386        C  0.87108305  0.69432870  0.20195144     0.98200
O387        O  0.88153610  0.69961110  0.17328013    -0.82400
O388        O  0.82400554  0.70539687  0.13941541    -0.85000
C389        C  0.79722894  0.69768259  0.12605840     1.02600
O390        O  0.79322837  0.66931794  0.11410136    -0.77800
O391        O  0.78775601  0.63077102  0.16890398    -0.78000
C392        C  0.79532909  0.61734764  0.19582354     1.02600
Cr393      Cr  0.86669974  0.62639281  0.18230432     1.93700
Cr394      Cr  0.86527858  0.68161409  0.13089868     1.93200
Cr395      Cr  0.81383308  0.62686609  0.12824876     1.39100
O396        O  0.84874533  0.64474169  0.14711828    -1.23100
O397        O  0.66212086  0.87726174  0.08564909    -0.85300
O398        O  0.67441219  0.91493185  0.14049822    -0.82400
C399        C  0.64771045  0.92900941  0.14769610     0.98100
O400        O  0.62387653  0.91268331  0.15892381    -0.82400
O401        O  0.58356141  0.85940339  0.16984899    -0.85100
C402        C  0.56972116  0.85180349  0.14313320     1.02700
O403        O  0.58621374  0.83915089  0.12011946    -0.77800
O404        O  0.64098252  0.82776163  0.08177535    -0.78000
C405        C  0.65012040  0.85441370  0.06856004     1.02600
O406        O  0.70170358  0.82586398  0.11156509    -0.85300
O407        O  0.70855534  0.85999378  0.16900509    -0.82400
C408        C  0.70058744  0.87164704  0.19654059     0.98200
O409        O  0.67237995  0.88358551  0.20122552    -0.82400
O410        O  0.63472205  0.82899535  0.20699943    -0.85000
C411        C  0.62231889  0.80167932  0.19954629     1.02600
O412        O  0.61257375  0.79645137  0.17049447    -0.77800
O413        O  0.66902212  0.79025031  0.13479930    -0.78000
C414        C  0.69650293  0.79737715  0.12247321     1.02600
Cr415      Cr  0.68363815  0.86827668  0.12816721     1.93700
Cr416      Cr  0.62989384  0.86979321  0.18123664     1.93200
Cr417      Cr  0.62865730  0.81630367  0.12805253     1.39100
O418        O  0.64713451  0.85166172  0.14559453    -1.23100
O419        O  0.63937392  0.58462483  0.32815099    -0.85300
O420        O  0.58713822  0.62529293  0.34077049    -0.82400
C421        C  0.57113245  0.64981094  0.35058958     0.98100
O422        O  0.58583046  0.67589223  0.35862675    -0.82400
O423        O  0.62510352  0.66067498  0.41205778    -0.85100
C424        C  0.64885574  0.64938411  0.42843840     1.02700
O425        O  0.67556235  0.64245811  0.41414356    -0.77800
O426        O  0.66126618  0.58781573  0.37729665    -0.78000
C427        C  0.64845910  0.57105444  0.35471637     1.02600
O428        O  0.66825685  0.63594208  0.28920117    -0.85300
O429        O  0.61431380  0.67488565  0.29795827    -0.82400
C430        C  0.62500782  0.70369560  0.30308571     0.98200
O431        O  0.63894715  0.71065688  0.32987572    -0.82400
O432        O  0.67631828  0.70132769  0.38555165    -0.85000
C433        C  0.70424611  0.69592514  0.37310892     1.02600
O434        O  0.70983749  0.66911572  0.35872838    -0.77800
O435        O  0.70074064  0.61188784  0.32448627    -0.78000
C436        C  0.69474600  0.62137870  0.29550007     1.02600
Cr437      Cr  0.62871002  0.63139850  0.31674424     1.93700
Cr438      Cr  0.63271192  0.68426144  0.37024013     1.93200
Cr439      Cr  0.68409144  0.62935703  0.36749597     1.39100
O440        O  0.64839074  0.64823594  0.35146867    -1.23100
O441        O  0.58975277  0.12306243  0.16227603    -0.85300
O442        O  0.64474778  0.08614810  0.17556937    -0.82400
C443        C  0.65067023  0.07128712  0.14898001     0.98100
O444        O  0.66105401  0.08719286  0.12435851    -0.82400
O445        O  0.67215651  0.14037534  0.08307636    -0.85100
C446        C  0.64563998  0.14887848  0.06937608     1.02700
O447        O  0.62245511  0.16083467  0.08602143    -0.77800
O448        O  0.58485682  0.17236221  0.14096766    -0.78000
C449        C  0.57228953  0.14507350  0.14920190     1.02600
O450        O  0.61545261  0.17587821  0.20093409    -0.85300
O451        O  0.67339573  0.14145664  0.20795899    -0.82400
C452        C  0.70024443  0.12790654  0.20031828     0.98200
O453        O  0.70420042  0.11603451  0.17192852    -0.82400
O454        O  0.70955728  0.17108798  0.13362290    -0.85000
C455        C  0.70207244  0.19833332  0.12073827     1.02600
O456        O  0.67312641  0.20324619  0.11067375    -0.77800
O457        O  0.63896566  0.21052282  0.16745963    -0.78000
C458        C  0.62693147  0.20407197  0.19514324     1.02600
Cr459      Cr  0.63211692  0.13290397  0.18373738     1.93700
Cr460      Cr  0.68393719  0.13005405  0.12940500     1.93200
Cr461      Cr  0.63104276  0.18387813  0.12787783     1.39100
O462        O  0.64882799  0.14873395  0.14670601    -1.23100
O463        O  0.67466760  0.41517578  0.35600510    -0.85300
O464        O  0.66074739  0.37685108  0.40999938    -0.82400
C465        C  0.64872283  0.35385231  0.42685518     0.98100
O466        O  0.63994219  0.32745459  0.41291567    -0.82400
O467        O  0.58694158  0.34353367  0.37428102    -0.85100
C468        C  0.57085776  0.35546637  0.35073420     1.02700
O469        O  0.58488006  0.36128145  0.32354252    -0.77800
O470        O  0.62481931  0.41360750  0.33595576    -0.78000
C471        C  0.64810287  0.42957740  0.34838779     1.02600
O472        O  0.70920278  0.35992281  0.32766627    -0.85300
O473        O  0.69968781  0.32401818  0.38342582    -0.82400
C474        C  0.69337214  0.29547791  0.37269179     0.98200
O475        O  0.66608599  0.28968768  0.35938999    -0.82400
O476        O  0.61037806  0.30038777  0.32310296    -0.85000
C477        C  0.62328732  0.30450877  0.29510769     1.02600
O478        O  0.63784028  0.33091855  0.28843773    -0.77800
O479        O  0.67559259  0.38568244  0.29477496    -0.78000
C480        C  0.70357121  0.37328848  0.30032388     1.02600
Cr481      Cr  0.68335426  0.36797633  0.36785595     1.93700
Cr482      Cr  0.62727184  0.31797793  0.36621236     1.93200
Cr483      Cr  0.63184819  0.37149151  0.31339912     1.39100
O484        O  0.64739757  0.35265205  0.34932702    -1.23100
O485        O  0.87377962  0.16040002  0.41434812    -0.85300
O486        O  0.91428049  0.17253679  0.36153840    -0.82400
C487        C  0.92825813  0.14577271  0.35413036     0.98100
O488        O  0.91189067  0.12247634  0.34182346    -0.82400
O489        O  0.85841406  0.08333453  0.32820343    -0.85100
C490        C  0.85175933  0.06952973  0.35512537     1.02700
O491        O  0.83920159  0.08590634  0.37832035    -0.77800
O492        O  0.82425793  0.13985437  0.41668212    -0.78000
C493        C  0.85061861  0.14780481  0.43070580     1.02600
O494        O  0.82395471  0.20157436  0.38602508    -0.85300
O495        O  0.86208574  0.20878581  0.33033269    -0.82400
C496        C  0.87514678  0.20054917  0.30339230     0.98200
O497        O  0.88589044  0.17181270  0.29935968    -0.82400
O498        O  0.82947241  0.13582033  0.29176061    -0.85000
C499        C  0.80221817  0.12297910  0.29909208     1.02600
O500        O  0.79747200  0.11164804  0.32754862    -0.77800
O501        O  0.78859981  0.16793948  0.36351341    -0.78000
C502        C  0.79524906  0.19559391  0.37589720     1.02600
Cr503      Cr  0.86722890  0.18291346  0.37163635     1.93700
Cr504      Cr  0.86988497  0.12969084  0.31819114     1.93200
Cr505      Cr  0.81537018  0.12784083  0.37020917     1.39100
O506        O  0.85087886  0.14685465  0.35343242    -1.23100
O507        O  0.88077895  0.33570865  0.08665646    -0.85300
O508        O  0.92207278  0.32415771  0.13862763    -0.82400
C509        C  0.93524637  0.35135300  0.14587061     0.98100
O510        O  0.91840175  0.37407448  0.15852645    -0.82400
O511        O  0.86538314  0.41244138  0.17407525    -0.85100
C512        C  0.85766652  0.42578288  0.14716465     1.02700
O513        O  0.84533249  0.40895597  0.12434776    -0.77800
O514        O  0.83120951  0.35652180  0.08492845    -0.78000
C515        C  0.85776236  0.34896277  0.07069015     1.02600
O516        O  0.83165342  0.29365214  0.11580192    -0.85300
O517        O  0.87061164  0.28718993  0.17052294    -0.82400
C518        C  0.88418259  0.29485613  0.19734765     0.98200
O519        O  0.89506054  0.32353972  0.20141300    -0.82400
O520        O  0.83799408  0.35877547  0.21122798    -0.85000
C521        C  0.81039577  0.37130454  0.20461262     1.02600
O522        O  0.80479488  0.38206887  0.17592502    -0.77800
O523        O  0.79542954  0.32677128  0.13812472    -0.78000
C524        C  0.80273294  0.29930847  0.12575036     1.02600
Cr525      Cr  0.87494508  0.31299886  0.12938231     1.93700
Cr526      Cr  0.87759173  0.36578272  0.18339436     1.93200
Cr527      Cr  0.82215360  0.36708958  0.13218769     1.39100
O528        O  0.85814898  0.34850318  0.14829703    -1.23100
O529        O  0.14310253  0.08961857  0.32322796    -0.85300
O530        O  0.08765649  0.12647397  0.33659340    -0.82400
C531        C  0.07015622  0.14907722  0.34863737     0.98100
O532        O  0.08298514  0.17638860  0.35647634    -0.82400
O533        O  0.12031128  0.16622114  0.41210268    -0.85100
C534        C  0.14239766  0.15253306  0.42900119     1.02700
O535        O  0.16896226  0.14310108  0.41594527    -0.77800
O536        O  0.15888449  0.09085346  0.37436976    -0.78000
C537        C  0.14829994  0.07493176  0.34997728     1.02600
O538        O  0.17107205  0.14488893  0.29061679    -0.85300
O539        O  0.11334974  0.17833152  0.29683930    -0.82400
C540        C  0.12579499  0.20626378  0.30125062     0.98200
O541        O  0.13739428  0.21369323  0.32892838    -0.82400
O542        O  0.17109532  0.20764904  0.38639600    -0.85000
C543        C  0.20044445  0.20203608  0.37797640     1.02600
O544        O  0.20838175  0.17437421  0.36654846    -0.77800
O545        O  0.20313615  0.12111722  0.32687934    -0.78000
C546        C  0.19862012  0.13330130  0.29860412     1.02600
Cr547      Cr  0.13013337  0.13605320  0.31492306     1.93700
Cr548      Cr  0.12917834  0.18811370  0.36948276     1.93200
Cr549      Cr  0.18195052  0.13370679  0.36962734     1.39100
O550        O  0.14698215  0.15247235  0.35172117    -1.23100
O551        O  0.14751175  0.41938031  0.16987623    -0.85300
O552        O  0.09317241  0.38038949  0.15847642    -0.82400
C553        C  0.07680248  0.35632438  0.14792143     0.98100
O554        O  0.09099708  0.32958195  0.14068103    -0.82400
O555        O  0.12904356  0.34188278  0.08606963    -0.85100
C556        C  0.15165115  0.35436001  0.06890961     1.02700
O557        O  0.17878558  0.36215900  0.08178572    -0.77800
O558        O  0.16631177  0.41634656  0.11952336    -0.78000
C559        C  0.15477252  0.43295357  0.14289393     1.02600
O560        O  0.17598127  0.36665459  0.20580075    -0.85300
O561        O  0.12020138  0.33104565  0.20043734    -0.82400
C562        C  0.13229190  0.30275491  0.19679053     0.98200
O563        O  0.14553194  0.29499164  0.16980136    -0.82400
O564        O  0.18072949  0.30210535  0.11229477    -0.85000
C565        C  0.20961750  0.30760351  0.12228647     1.02600
O566        O  0.21659303  0.33489465  0.13495012    -0.77800
O567        O  0.20806111  0.39117915  0.17038338    -0.78000
C568        C  0.20318071  0.37938579  0.19866526     1.02600
Cr569      Cr  0.13564528  0.37329524  0.18083865     1.93700
Cr570      Cr  0.13776793  0.31986176  0.12847832     1.93200
Cr571      Cr  0.18958721  0.37468757  0.12794434     1.39100
O572        O  0.15412312  0.35616355  0.14547565    -1.23100
O573        O  0.32966689  0.14256956  0.08267325    -0.85300
O574        O  0.33888906  0.08888009  0.12281977    -0.82400
C575        C  0.34878735  0.07198251  0.14681480     0.98100
O576        O  0.35501593  0.08567438  0.17397449    -0.82400
O577        O  0.41263765  0.11972949  0.16245386    -0.85100
C578        C  0.43082276  0.14157681  0.15008405     1.02700
O579        O  0.41878368  0.16894649  0.14131165    -0.77800
O580        O  0.38060196  0.15913022  0.08642033    -0.78000
C581        C  0.35698707  0.14878147  0.06929475     1.02600
O582        O  0.29363667  0.17386509  0.13414216    -0.85300
O583        O  0.29716469  0.11834366  0.17196549    -0.82400
C584        C  0.30165816  0.13045786  0.20022174     0.98200
O585        O  0.32934570  0.14216317  0.20760759    -0.82400
O586        O  0.38876107  0.17313212  0.20127892    -0.85000
C587        C  0.37936228  0.20218012  0.19595298     1.02600
O588        O  0.36750000  0.20963804  0.16835632    -0.77800
O589        O  0.33222542  0.20405195  0.11174033    -0.78000
C590        C  0.30289251  0.20049048  0.12135568     1.02600
Cr591      Cr  0.31773966  0.13207914  0.12921018     1.93700
Cr592      Cr  0.37009794  0.13139528  0.18340917     1.93200
Cr593      Cr  0.37342209  0.18273884  0.12836662     1.39100
O594        O  0.35394287  0.14860079  0.14675514    -1.23100
O595        O  0.33128054  0.36131505  0.41472358    -0.85300
O596        O  0.34040625  0.41428911  0.37401307    -0.82400
C597        C  0.35052300  0.43085960  0.34985598     0.98100
O598        O  0.35704354  0.41669819  0.32302329    -0.82400
O599        O  0.41270800  0.38030594  0.33471985    -0.85100
C600        C  0.43032285  0.35780747  0.34650000     1.02700
O601        O  0.41803501  0.33036586  0.35442070    -0.77800
O602        O  0.38103435  0.34134337  0.40960794    -0.78000
C603        C  0.35877899  0.35404768  0.42705277     1.02600
O604        O  0.29328582  0.32990561  0.36427902    -0.85300
O605        O  0.29776407  0.38460582  0.32615147    -0.82400
C606        C  0.30283380  0.37374157  0.29754325     0.98200
O607        O  0.33002972  0.36180672  0.28936897    -0.82400
O608        O  0.38717942  0.32817989  0.29466684    -0.85000
C609        C  0.37684200  0.29938756  0.29978008     1.02600
O610        O  0.36546309  0.29151099  0.32750236    -0.77800
O611        O  0.33091850  0.29772067  0.38512869    -0.78000
C612        C  0.30155901  0.30256758  0.37627798     1.02600
Cr613      Cr  0.31856974  0.37112031  0.36841414     1.93700
Cr614      Cr  0.37046895  0.37042847  0.31351045     1.93200
Cr615      Cr  0.37244694  0.31805515  0.36779321     1.39100
O616        O  0.35386252  0.35325154  0.35006398    -1.23100
O617        O  0.08401657  0.62575632  0.16112318    -0.85300
O618        O  0.13805963  0.58696366  0.17284021    -0.82400
C619        C  0.14592569  0.57377448  0.14586013     0.98100
O620        O  0.15726334  0.59088150  0.12261982    -0.82400
O621        O  0.17044886  0.64515400  0.08425326    -0.85100
C622        C  0.14382898  0.65252119  0.07002046     1.02700
O623        O  0.11991033  0.66301682  0.08669713    -0.77800
O624        O  0.08108515  0.67558407  0.14110297    -0.78000
C625        C  0.06735103  0.64881023  0.14889576     1.02600
O626        O  0.11168410  0.67619072  0.20238095    -0.85300
O627        O  0.16697473  0.63911972  0.20986201    -0.82400
C628        C  0.19411338  0.62660700  0.20194552     0.98200
O629        O  0.19880310  0.61606952  0.17315042    -0.82400
O630        O  0.20589396  0.67304477  0.13821542    -0.85000
C631        C  0.19874266  0.70013204  0.12499367     1.02600
O632        O  0.17033912  0.70466824  0.11332296    -0.77800
O633        O  0.13429170  0.71216790  0.16916694    -0.78000
C634        C  0.12286910  0.70462377  0.19688235     1.02600
Cr635      Cr  0.12647340  0.63332083  0.18365180     1.93700
Cr636      Cr  0.18026240  0.63261169  0.13078716     1.93200
Cr637      Cr  0.12755022  0.68596616  0.12905820     1.39100
O638        O  0.14460436  0.65051474  0.14781259    -1.23100
O639        O  0.41268016  0.62357005  0.33604608    -0.85300
O640        O  0.35688464  0.58654507  0.32379289    -0.82400
C641        C  0.34881897  0.57337075  0.35081001     0.98100
O642        O  0.33758073  0.59082889  0.37380646    -0.82400
O643        O  0.32776873  0.64654388  0.41093367    -0.85100
C644        C  0.35486684  0.65395384  0.42419196     1.02700
O645        O  0.37831175  0.66487484  0.40723393    -0.77800
O646        O  0.41593717  0.67474436  0.35227915    -0.78000
C647        C  0.42956042  0.64760270  0.34589688     1.02600
O648        O  0.38829823  0.67384211  0.29299013    -0.85300
O649        O  0.33067243  0.64009991  0.28590292    -0.82400
C650        C  0.30284725  0.62892430  0.29355654     0.98200
O651        O  0.29781428  0.61827555  0.32234780    -0.82400
O652        O  0.29212686  0.67536881  0.35740656    -0.85000
C653        C  0.29992626  0.70242386  0.37030912     1.02600
O654        O  0.32867154  0.70668469  0.38089739    -0.77800
O655        O  0.36347292  0.71048537  0.32343592    -0.78000
C656        C  0.37752826  0.70265168  0.29696459     1.02600
Cr657      Cr  0.37074429  0.63221173  0.31248218     1.93700
Cr658      Cr  0.31660251  0.63399729  0.36490198     1.93200
Cr659      Cr  0.37033820  0.68638127  0.36465081     1.39100
O660        O  0.35275617  0.65057100  0.34763378    -1.23100
O661        O  0.16027841  0.91585755  0.37438505    -0.85300
O662        O  0.17270510  0.86182035  0.41302931    -0.82400
C663        C  0.14601021  0.85422219  0.42692482     0.98100
O664        O  0.12288810  0.84165612  0.41051433    -0.82400
O665        O  0.08360772  0.82919771  0.35698197    -0.85100
C666        C  0.06961509  0.85619259  0.35116116     1.02700
O667        O  0.08587667  0.87998370  0.33965759    -0.77800
O668        O  0.13975046  0.91851279  0.32487226    -0.78000
C669        C  0.14760602  0.93246221  0.35148617     1.02600
O670        O  0.20030627  0.88787866  0.32262393    -0.85300
O671        O  0.20826642  0.83196848  0.35952832    -0.82400
C672        C  0.20082763  0.80459643  0.37209562     0.98200
O673        O  0.17236939  0.79989391  0.38326486    -0.82400
O674        O  0.13605729  0.79415631  0.32675100    -0.85000
C675        C  0.12200357  0.80170225  0.30011953     1.02600
O676        O  0.11018547  0.83009140  0.29640986    -0.77800
O677        O  0.16684119  0.86512129  0.28733086    -0.78000
C678        C  0.19472515  0.87674967  0.29409233     1.02600
Cr679      Cr  0.18254720  0.87299701  0.36615994     1.93700
Cr680      Cr  0.12997597  0.81907738  0.36800414     1.93200
Cr681      Cr  0.12718823  0.87224400  0.31490153     1.39100
O682        O  0.14652252  0.85491744  0.34987160    -1.23100
O683        O  0.41114962  0.87929216  0.15750500    -0.85300
O684        O  0.35576011  0.91665697  0.16895958    -0.82400
C685        C  0.34794464  0.93007643  0.14206169     0.98100
O686        O  0.33690182  0.91294158  0.11875644    -0.82400
O687        O  0.32620508  0.85723310  0.08112671    -0.85100
C688        C  0.35295732  0.84914860  0.06734962     1.02700
O689        O  0.37638490  0.83819580  0.08430331    -0.77800
O690        O  0.41531295  0.82892203  0.13861032    -0.78000
C691        C  0.42827654  0.85607670  0.14618115     1.02600
O692        O  0.38601523  0.82960792  0.20000137    -0.85300
O693        O  0.32896203  0.86457718  0.20704692    -0.82400
C694        C  0.30151562  0.87651879  0.19927984     0.98200
O695        O  0.29617018  0.88614232  0.17016048    -0.82400
O696        O  0.29033179  0.82930717  0.13531064    -0.85000
C697        C  0.29817744  0.80163569  0.12392728     1.02600
O698        O  0.32678816  0.79664109  0.11296593    -0.77800
O699        O  0.36332258  0.79235028  0.16861739    -0.78000
C700        C  0.37591251  0.80069730  0.19553365     1.02600
Cr701      Cr  0.36909593  0.87115203  0.18040526     1.93700
Cr702      Cr  0.31535183  0.87007148  0.12754639     1.93200
Cr703      Cr  0.36910650  0.81702219  0.12750111     1.39100
O704        O  0.35135304  0.85289697  0.14497726    -1.23100
C705        C  0.24336754  0.86788798  0.21395034    -0.12200
C706        C  0.27463851  0.87817757  0.22369775     0.04800
C707        C  0.27935938  0.88869206  0.25637705    -0.07500
C708        C  0.25300409  0.88813435  0.27858012    -0.08300
C709        C  0.22151619  0.87757167  0.26898939    -0.02800
C710        C  0.21701600  0.86740313  0.23603170     0.04000
N711        N  0.18596441  0.85659431  0.22415936     0.66500
H712        H  0.23937985  0.85963508  0.18894875     0.15400
H713        H  0.25731954  0.89642403  0.30348471     0.15100
N714        N  0.30991497  0.90232730  0.26687843     0.74200
O715        O  0.16770438  0.87702879  0.20968412    -0.39300
O716        O  0.18159971  0.82630029  0.21932804    -0.39200
O717        O  0.31509110  0.93250854  0.26218270    -0.39900
O718        O  0.32650296  0.88746910  0.28842159    -0.40000
C719        C  0.38733876  0.74388387  0.21371328    -0.12200
C720        C  0.37927690  0.77630995  0.22183557     0.04800
C721        C  0.37367911  0.78467823  0.25489789    -0.07500
C722        C  0.37442112  0.76039786  0.27893102    -0.08300
C723        C  0.38126620  0.72761164  0.27089846    -0.02800
C724        C  0.38917456  0.71962515  0.23796990     0.04000
N725        N  0.39959533  0.68742244  0.22864591     0.66500
H726        H  0.39262786  0.73742181  0.18843969     0.15400
H727        H  0.36878173  0.76730454  0.30397948     0.15100
N728        N  0.36425072  0.81709796  0.26421775     0.74200
O729        O  0.38202561  0.67079177  0.20937030    -0.39300
O730        O  0.42942466  0.67979573  0.23198598    -0.39200
O731        O  0.33416465  0.82334413  0.26802661    -0.39900
O732        O  0.38535992  0.83599601  0.27670131    -0.40000
C733        C  0.24182270  0.72046967  0.37104399    -0.12200
C734        C  0.27503777  0.72888296  0.37346519     0.04800
C735        C  0.28343938  0.76232208  0.37782210    -0.07500
C736        C  0.25888248  0.78645137  0.37747324    -0.08300
C737        C  0.22567176  0.77801995  0.37427957    -0.02800
C738        C  0.21718947  0.74436682  0.37203862     0.04000
N739        N  0.18392519  0.73370209  0.36918365     0.66500
H740        H  0.23472865  0.69497847  0.36840134     0.15400
H741        H  0.26588435  0.81198738  0.37990596     0.15100
N742        N  0.31670145  0.77244394  0.38217808     0.74200
O743        O  0.17573762  0.71780238  0.34391796    -0.39300
O744        O  0.16706521  0.73037858  0.39499678    -0.39200
O745        O  0.33193641  0.78518574  0.35838159    -0.39900
O746        O  0.32771752  0.77598854  0.41093058    -0.40000
C747        C  0.25705546  0.71798431  0.12787796    -0.12200
C748        C  0.22397827  0.72631784  0.12276359     0.04800
C749        C  0.21581050  0.75963738  0.11709165    -0.07500
C750        C  0.24040073  0.78360970  0.11734577    -0.08300
C751        C  0.27333397  0.77522628  0.12278499    -0.02800
C752        C  0.28162728  0.74196023  0.12793797     0.04000
N753        N  0.31443940  0.73228966  0.13568483     0.66500
H754        H  0.26395549  0.69272462  0.13256056     0.15400
H755        H  0.23362415  0.80902232  0.11332950     0.15100
N756        N  0.18263455  0.76989801  0.11213811     0.74200
O757        O  0.32389326  0.73354305  0.16516623    -0.39300
O758        O  0.33049498  0.71527611  0.11534081    -0.39200
O759        O  0.16677264  0.78204626  0.13585261    -0.39900
O760        O  0.17213987  0.77380902  0.08323404    -0.40000
C761        C  0.11136795  0.76131565  0.21604712    -0.12200
C762        C  0.12201716  0.72935784  0.22309727     0.04800
C763        C  0.13146717  0.72136848  0.25531556    -0.07500
C764        C  0.12982166  0.74495491  0.28013927    -0.08300
C765        C  0.11964602  0.77719092  0.27325667    -0.02800
C766        C  0.10958362  0.78513495  0.24086687     0.04000
N767        N  0.09627298  0.81659145  0.23280684     0.66500
H768        H  0.10372646  0.76752123  0.19163557     0.15400
H769        H  0.13635278  0.73852002  0.30308691     0.15100
N770        N  0.14505395  0.69002388  0.26315225     0.74200
O771        O  0.11291079  0.83614111  0.21552093    -0.39300
O772        O  0.06569397  0.82090549  0.23503429    -0.39200
O773        O  0.17583490  0.68653276  0.26277909    -0.39900
O774        O  0.12765573  0.66946070  0.27844087    -0.40000
C775        C  0.24450383  0.61692387  0.27989337    -0.12200
C776        C  0.27555246  0.62779477  0.26926137     0.04800
C777        C  0.27916551  0.63759762  0.23608699    -0.07500
C778        C  0.25240333  0.63600993  0.21466724    -0.08300
C779        C  0.22153356  0.62552573  0.22552689    -0.02800
C780        C  0.21764937  0.61576976  0.25849440     0.04000
N781        N  0.18715990  0.60315162  0.27037657     0.66500
H782        H  0.24086431  0.60905539  0.30504521     0.15400
H783        H  0.25559332  0.64403823  0.18947308     0.15100
N784        N  0.30942141  0.64996166  0.22358335     0.74200
O785        O  0.17993748  0.57359820  0.26457438    -0.39300
O786        O  0.17264154  0.61792050  0.29344024    -0.39200
O787        O  0.32556120  0.63253662  0.20365606    -0.39900
O788        O  0.31445266  0.68052404  0.22444141    -0.40000
C789        C  0.33721295  0.48399992  0.37788790    -0.12200
C790        C  0.35296421  0.46726390  0.35205672     0.04800
C791        C  0.36940760  0.48594981  0.32781829    -0.07500
C792        C  0.36873024  0.52016245  0.32908626    -0.08300
C793        C  0.35159727  0.53702532  0.35382579    -0.02800
C794        C  0.33630249  0.51849362  0.37895328     0.04000
N795        N  0.31859215  0.53401239  0.40497375     0.66500
H796        H  0.32454615  0.47032474  0.39685540     0.15400
H797        H  0.38132761  0.53357762  0.30987699     0.15100
N798        N  0.38714743  0.47083241  0.30157996     0.74200
O799        O  0.28774284  0.53609561  0.40319408    -0.39300
O800        O  0.33249938  0.53833011  0.43232108    -0.39200
O801        O  0.37335043  0.46726422  0.27406059    -0.39900
O802        O  0.41802594  0.46961371  0.30318396    -0.40000
C803        C  0.33622527  0.01981820  0.11722616    -0.12200
C804        C  0.35132265  0.03579509  0.14385965     0.04800
C805        C  0.36738469  0.01658927  0.16788188    -0.07500
C806        C  0.36728296  0.98252231  0.16537377    -0.08300
C807        C  0.35068578  0.96634497  0.13985574    -0.02800
C808        C  0.33550733  0.98543729  0.11515476     0.04000
N809        N  0.31785736  0.97061501  0.08875148     0.66500
H810        H  0.32375969  0.03397523  0.09847495     0.15400
H811        H  0.37965311  0.96865873  0.18441672     0.15100
N812        N  0.38376144  0.03096669  0.19535704     0.74200
O813        O  0.28713385  0.96747190  0.09106927    -0.39300
O814        O  0.33125910  0.96848403  0.06086970    -0.39200
O815        O  0.36883888  0.03305989  0.22246247    -0.39900
O816        O  0.41463992  0.03261692  0.19507384    -0.40000
C817        C  0.39254212  0.24399184  0.27892193    -0.12200
C818        C  0.37854775  0.27490963  0.27303763     0.04800
C819        C  0.36653137  0.28222563  0.24137479    -0.07500
C820        C  0.36797249  0.25858150  0.21654128    -0.08300
C821        C  0.38156305  0.22740863  0.22228901    -0.02800
C822        C  0.39474152  0.22050368  0.25377667     0.04000
N823        N  0.41081446  0.19002931  0.26056677     0.66500
H824        H  0.40239093  0.23828199  0.30300198     0.15400
H825        H  0.35749576  0.26454383  0.19279690     0.15100
N826        N  0.35066508  0.31275991  0.23453274     0.74200
O827        O  0.43981657  0.18529780  0.25070055    -0.39300
O828        O  0.39526338  0.16698714  0.27425295    -0.39200
O829        O  0.36570464  0.33426873  0.21805469    -0.39900
O830        O  0.31985537  0.31457453  0.23716338    -0.40000
C831        C  0.16555690  0.52264862  0.11963576    -0.12200
C832        C  0.14470278  0.53773014  0.14257720     0.04800
C833        C  0.12558851  0.51780856  0.16359845    -0.07500
C834        C  0.12808724  0.48378225  0.16158891    -0.08300
C835        C  0.15043851  0.46875488  0.14014456    -0.02800
C836        C  0.16924758  0.48854124  0.11875778     0.04000
N837        N  0.19433014  0.47506589  0.09822171     0.66500
H838        H  0.18095262  0.53746131  0.10379322     0.15400
H839        H  0.11318036  0.46904712  0.17798816     0.15100
N840        N  0.10383221  0.53133145  0.18758203     0.74200
O841        O  0.19373719  0.48126057  0.06786454    -0.39300
O842        O  0.22106951  0.46623424  0.11113949    -0.39200
O843        O  0.07342908  0.52699079  0.18397109    -0.39900
O844        O  0.11471548  0.53726961  0.21598749    -0.40000
C845        C  0.22339218  0.36200258  0.25290613    -0.12200
C846        C  0.22913311  0.37978178  0.22383479     0.04800
C847        C  0.25954376  0.39591081  0.21953930    -0.07500
C848        C  0.28345374  0.39354993  0.24400177    -0.08300
C849        C  0.27716393  0.37612966  0.27296995    -0.02800
C850        C  0.24691479  0.36046024  0.27753920     0.04000
N851        N  0.24010791  0.34156600  0.30633494     0.66500
H852        H  0.20135470  0.34899166  0.25635907     0.15400
H853        H  0.30672711  0.40560348  0.24058759     0.15100
N854        N  0.26651997  0.41511861  0.19100339     0.74200
O855        O  0.22290600  0.35412010  0.32886579    -0.39300
O856        O  0.24355555  0.31078570  0.30530636    -0.39200
O857        O  0.26299289  0.44587629  0.19228714    -0.39900
O858        O  0.28330798  0.40273427  0.16807275    -0.40000
C859        C  0.22400989  0.24916436  0.11282772    -0.12200
C860        C  0.23473111  0.28128565  0.11930332     0.04800
C861        C  0.26874560  0.28687901  0.12361629    -0.07500
C862        C  0.29068478  0.26030890  0.12330858    -0.08300
C863        C  0.27953680  0.22810874  0.11820226    -0.02800
C864        C  0.24598817  0.22285956  0.11183329     0.04000
N865        N  0.23390861  0.19119311  0.10297749     0.66500
H866        H  0.19824607  0.24418728  0.10861897     0.15400
H867        H  0.31651882  0.26486123  0.12763489     0.15100
N868        N  0.28162844  0.31927019  0.12745892     0.74200
O869        O  0.21568767  0.17597302  0.12284307    -0.39300
O870        O  0.23385886  0.18298490  0.07308366    -0.39200
O871        O  0.29231437  0.32820604  0.15513458    -0.39900
O872        O  0.28926583  0.33557993  0.10221102    -0.40000
C873        C  0.15231252  0.02180820  0.38065664    -0.12200
C874        C  0.14375552  0.03866497  0.35180086     0.04800
C875        C  0.13225693  0.02012631  0.32471210    -0.07500
C876        C  0.13256798  0.98585633  0.32596515    -0.08300
C877        C  0.14360690  0.96884417  0.35389073    -0.02800
C878        C  0.15192079  0.98736447  0.38204605     0.04000
N879        N  0.16008631  0.97190560  0.41233513     0.66500
H880        H  0.15997741  0.03533177  0.40222544     0.15400
H881        H  0.12476471  0.97257370  0.30429859     0.15100
N882        N  0.12040838  0.03539374  0.29540138     0.74200
O883        O  0.18977683  0.97107350  0.42104841    -0.39300
O884        O  0.13789450  0.96836337  0.43370536    -0.39200
O885        O  0.13911742  0.03749338  0.27076905    -0.39900
O886        O  0.08986898  0.03849923  0.29140695    -0.40000
C887        C  0.24299100  0.28541366  0.37967969    -0.12200
C888        C  0.27627078  0.27639039  0.38011522     0.04800
C889        C  0.28421396  0.24264178  0.38268103    -0.07500
C890        C  0.25912154  0.21904552  0.38345092    -0.08300
C891        C  0.22588895  0.22808160  0.38124996    -0.02800
C892        C  0.21797963  0.26186059  0.38004593     0.04000
N893        N  0.18480029  0.27284145  0.37725057     0.66500
H894        H  0.23616071  0.31107396  0.37833046     0.15400
H895        H  0.26581998  0.19332667  0.38479773     0.15100
N896        N  0.31750884  0.23159282  0.38283825     0.74200
O897        O  0.16952459  0.28154323  0.40279006    -0.39300
O898        O  0.17404391  0.28142047  0.34947979    -0.39200
O899        O  0.33013059  0.22196525  0.40946140    -0.39900
O900        O  0.33114331  0.22412451  0.35600226    -0.40000
C901        C  0.21782101  0.12264010  0.24197832    -0.12200
C902        C  0.22521133  0.13260400  0.27398969     0.04800
C903        C  0.25753692  0.14222039  0.28153045    -0.07500
C904        C  0.28190194  0.14098644  0.25727658    -0.08300
C905        C  0.27481523  0.13041568  0.22513764    -0.02800
C906        C  0.24205721  0.12137487  0.21761203     0.04000
N907        N  0.23248933  0.11129709  0.18541160     0.66500
H908        H  0.19300678  0.11533467  0.23586831     0.15400
H909        H  0.30643724  0.14892252  0.26367179     0.15100
N910        N  0.26551395  0.15589718  0.31280269     0.74200
O911        O  0.23672112  0.08176476  0.17706121    -0.39300
O912        O  0.21186447  0.12844760  0.16992671    -0.39200
O913        O  0.28203468  0.13910267  0.33293851    -0.39900
O914        O  0.26397668  0.18662646  0.31639895    -0.40000
C915        C  0.12592684  0.26391418  0.28188446    -0.12200
C916        C  0.12644088  0.23045342  0.27416284     0.04800
C917        C  0.12881680  0.22092094  0.24085429    -0.07500
C918        C  0.13078934  0.24484642  0.21621337    -0.08300
C919        C  0.12991586  0.27843871  0.22387586    -0.02800
C920        C  0.12736177  0.28789220  0.25732518     0.04000
N921        N  0.12683161  0.32158135  0.26719869     0.66500
H922        H  0.12391128  0.27163571  0.30726318     0.15400
H923        H  0.13289679  0.23699429  0.19086825     0.15100
N924        N  0.13066601  0.18713321  0.23159156     0.74200
O925        O  0.09986057  0.33682487  0.26688584    -0.39300
O926        O  0.14969458  0.33221215  0.28516149    -0.39200
O927        O  0.10512722  0.17274528  0.22164676    -0.39900
O928        O  0.15836169  0.17450165  0.22583394    -0.40000
C929        C  0.98725506  0.37516228  0.16615290    -0.12200
C930        C  0.97123168  0.35556970  0.14279363     0.04800
C931        C  0.99026895  0.33844073  0.11934421    -0.07500
C932        C  0.02462083  0.33979257  0.12091316    -0.08300
C933        C  0.04060359  0.35825038  0.14527733    -0.02800
C934        C  0.02150399  0.37645497  0.16777379     0.04000
N935        N  0.03626008  0.39401477  0.19428860     0.66500
H936        H  0.97316756  0.38819062  0.18458494     0.15400
H937        H  0.03888294  0.32616570  0.10305519     0.15100
N938        N  0.97526802  0.32037961  0.09326333     0.74200
O939        O  0.04129433  0.37936158  0.22115177    -0.39300
O940        O  0.03645622  0.42498861  0.19365615    -0.39200
O941        O  0.97018175  0.33450685  0.06612736    -0.39900
O942        O  0.97490308  0.28942071  0.09448501    -0.40000
C943        C  0.01728883  0.16465898  0.37527626    -0.12200
C944        C  0.03409143  0.14472595  0.35263499     0.04800
C945        C  0.01575581  0.12228070  0.33356329    -0.07500
C946        C  0.98143356  0.12168516  0.33589676    -0.08300
C947        C  0.96454805  0.14305414  0.35704349    -0.02800
C948        C  0.98299575  0.16376044  0.37792170     0.04000
N949        N  0.96746542  0.18353596  0.40244915     0.66500
H950        H  0.03083223  0.18122149  0.39103883     0.15400
H951        H  0.96790563  0.10544078  0.31980085     0.15100
N952        N  0.03125128  0.10102787  0.31039358     0.74200
O953        O  0.96204778  0.17137398  0.43046240    -0.39300
O954        O  0.96647909  0.21429846  0.39884724    -0.39200
O955        O  0.03423920  0.07097528  0.31728522    -0.39900
O956        O  0.03414619  0.11022638  0.28091864    -0.40000
C957        C  0.88871274  0.25667244  0.28292453    -0.12200
C958        C  0.87887479  0.22440825  0.27620917     0.04800
C959        C  0.87472745  0.21473335  0.24313580    -0.07500
C960        C  0.87838414  0.23766074  0.21786501    -0.08300
C961        C  0.88633049  0.27042713  0.22450020    -0.02800
C962        C  0.89359171  0.27934953  0.25737332     0.04000
N963        N  0.90832895  0.31023329  0.26502945     0.66500
H964        H  0.89386965  0.26395599  0.30799017     0.15400
H965        H  0.87486111  0.22970130  0.19280032     0.15100
N966        N  0.86505831  0.18211411  0.23472506     0.74200
O967        O  0.89158563  0.33230329  0.27882346    -0.39300
O968        O  0.93920913  0.31248171  0.26510400    -0.39200
O969        O  0.83513178  0.17635728  0.22939350    -0.39900
O970        O  0.88639539  0.16218431  0.22430783    -0.40000
C971        C  0.51902330  0.37797099  0.32822553    -0.12200
C972        C  0.53500494  0.36068294  0.35348347     0.04800
C973        C  0.51590649  0.34631632  0.37870575    -0.07500
C974        C  0.48170138  0.34724471  0.37669413    -0.08300
C975        C  0.46592410  0.36236672  0.35010088    -0.02800
C976        C  0.48483558  0.37876648  0.32620327     0.04000
N977        N  0.47005191  0.39368210  0.29809535     0.66500
H978        H  0.53307397  0.38959563  0.30884845     0.15400
H979        H  0.46737880  0.33498064  0.39548249     0.15100
N980        N  0.53054171  0.32888914  0.40542343     0.74200
O981        O  0.46900081  0.42457487  0.29628664    -0.39300
O982        O  0.46658211  0.37696051  0.27223527    -0.39200
O983        O  0.53370028  0.34301442  0.43282714    -0.39900
O984        O  0.53297719  0.29803449  0.40390616    -0.40000
C985        C  0.73640254  0.21208826  0.37268631    -0.12200
C986        C  0.76913609  0.22114476  0.37843362     0.04800
C987        C  0.77602735  0.25453987  0.38510357    -0.07500
C988        C  0.75088615  0.27796664  0.38362263    -0.08300
C989        C  0.71847451  0.26911509  0.37586900    -0.02800
C990        C  0.71125536  0.23550189  0.37101338     0.04000
N991        N  0.67861139  0.22439576  0.36462092     0.66500
H992        H  0.73022933  0.18677112  0.36941686     0.15400
H993        H  0.75706765  0.30338788  0.38804179     0.15100
N994        N  0.80832377  0.26539685  0.39330854     0.74200
O995        O  0.66950026  0.22038552  0.33526543    -0.39300
O996        O  0.66245609  0.21105027  0.38747221    -0.39200
O997        O  0.82552060  0.27951415  0.37172518    -0.39900
O998        O  0.81609720  0.26823721  0.42318289    -0.40000
C999        C  0.76247215  0.36656538  0.28555850    -0.12200
C1000       C  0.73051444  0.37468583  0.27546256     0.04800
C1001       C  0.72544317  0.38282643  0.24206781    -0.07500
C1002       C  0.75192389  0.38241745  0.21993800    -0.08300
C1003       C  0.78383766  0.37357849  0.22995720    -0.02800
C1004       C  0.78880750  0.36582640  0.26345444     0.04000
N1005       N  0.82024310  0.35670794  0.27580808     0.66500
H1006       H  0.76728371  0.36042612  0.31099266     0.15400
H1007       H  0.74707657  0.38816473  0.19442868     0.15100
N1008       N  0.69346295  0.39005937  0.22965094     0.74200
O1009       O  0.83917554  0.37891227  0.28616371    -0.39300
O1010       O  0.82460147  0.32750311  0.28525022    -0.39200
O1011       O  0.68618617  0.41935417  0.22261549    -0.39900
O1012       O  0.67617971  0.36702874  0.21826553    -0.40000
C1013       C  0.52008673  0.11807139  0.16675416    -0.12200
C1014       C  0.53638867  0.13998402  0.14567344     0.04800
C1015       C  0.51765050  0.15796694  0.12277113    -0.07500
C1016       C  0.48342613  0.15657595  0.12370454    -0.08300
C1017       C  0.46688328  0.13698928  0.14675335    -0.02800
C1018       C  0.48567178  0.11620066  0.16729436     0.04000
N1019       N  0.47058958  0.09354774  0.18934000     0.66500
H1020       H  0.53398714  0.10317378  0.18384949     0.15400
H1021       H  0.46968841  0.17143925  0.10643555     0.15100
N1022       N  0.53287963  0.17650509  0.09723744     0.74200
O1023       O  0.47220253  0.06333709  0.18271308    -0.39300
O1024       O  0.46520555  0.10226767  0.21860117    -0.39200
O1025       O  0.53439392  0.16415505  0.06886573    -0.39900
O1026       O  0.53626315  0.20711085  0.10061968    -0.40000
C1027       C  0.74536552  0.28161554  0.11201512    -0.12200
C1028       C  0.77724838  0.27342697  0.12242030     0.04800
C1029       C  0.78439489  0.24027693  0.12934684    -0.07500
C1030       C  0.75973187  0.21658769  0.12765193    -0.08300
C1031       C  0.72760541  0.22453553  0.11825973    -0.02800
C1032       C  0.72085601  0.25740514  0.10886831     0.04000
N1033       N  0.69021582  0.26630644  0.09422877     0.66500
H1034       H  0.73972814  0.30673560  0.10534784     0.15400
H1035       H  0.76597034  0.19165806  0.13396334     0.15100
N1036       N  0.81610231  0.23027161  0.14028998     0.74200
O1037       O  0.66967193  0.28295036  0.11037999    -0.39300
O1038       O  0.68718095  0.26435596  0.06343770    -0.39200
O1039       O  0.81941009  0.22152325  0.16982218    -0.39900
O1040       O  0.83694510  0.22088489  0.11934072    -0.40000
C1041       C  0.78418456  0.11995027  0.24090758    -0.12200
C1042       C  0.77572826  0.12108886  0.27424636     0.04800
C1043       C  0.74210174  0.12216563  0.28293903    -0.07500
C1044       C  0.71817389  0.12482589  0.25845832    -0.08300
C1045       C  0.72668719  0.12472906  0.22510472    -0.02800
C1046       C  0.76015505  0.12127143  0.21640288     0.04000
N1047       N  0.77048374  0.11977960  0.18290573     0.66500
H1048       H  0.80969407  0.11780421  0.23373224     0.15400
H1049       H  0.69261993  0.12633986  0.26569336     0.15100
N1050       N  0.73153884  0.12076090  0.31638082     0.74200
O1051       O  0.78326073  0.14486481  0.17002161    -0.39300
O1052       O  0.77550333  0.09206290  0.16998984    -0.39200
O1053       O  0.71634515  0.14497188  0.32828749    -0.39900
O1054       O  0.72847535  0.09304575  0.32992350    -0.40000
C1055       C  0.64776773  0.27869197  0.24631659    -0.12200
C1056       C  0.62270615  0.27842095  0.26994876     0.04800
C1057       C  0.59888458  0.25327196  0.26894260    -0.07500
C1058       C  0.60069122  0.22911955  0.24445083    -0.08300
C1059       C  0.62578459  0.22968443  0.22073901    -0.02800
C1060       C  0.64962613  0.25472073  0.22206319     0.04000
N1061       N  0.67672768  0.25565045  0.19979809     0.66500
H1062       H  0.66670324  0.29734692  0.24696255     0.15400
H1063       H  0.58208812  0.21015593  0.24368751     0.15100
N1064       N  0.57207014  0.25254184  0.29157952     0.74200
O1065       O  0.67669674  0.27671899  0.17709733    -0.39300
O1066       O  0.70354664  0.24260587  0.20819006    -0.39200
O1067       O  0.54450013  0.26355173  0.28271214    -0.39900
O1068       O  0.57378665  0.23431529  0.31660209    -0.40000
C1069       C  0.51841489  0.61880825  0.35332959    -0.12200
C1070       C  0.53495001  0.64897631  0.35044628     0.04800
C1071       C  0.51655309  0.67791914  0.34548533    -0.07500
C1072       C  0.48252127  0.67634862  0.34432820    -0.08300
C1073       C  0.46576492  0.64639227  0.34752833    -0.02800
C1074       C  0.48403406  0.61727000  0.35181955     0.04000
N1075       N  0.46825147  0.58617702  0.35538706     0.66500
H1076       H  0.53220518  0.59633182  0.35680372     0.15400
H1077       H  0.46917057  0.69896717  0.34005143     0.15100
N1078       N  0.53192061  0.70891665  0.33945096     0.74200
O1079       O  0.46519981  0.56781702  0.33061339    -0.39300
O1080       O  0.46455864  0.57418633  0.38374392    -0.39200
O1081       O  0.53511186  0.71882308  0.31022947    -0.39900
O1082       O  0.53479269  0.72918141  0.36271303    -0.40000
C1083       C  0.66719117  0.48160289  0.37405691    -0.12200
C1084       C  0.64511970  0.46559520  0.35297067     0.04800
C1085       C  0.62169000  0.48463514  0.33577093    -0.07500
C1086       C  0.62219942  0.51883383  0.33832716    -0.08300
C1087       C  0.64556162  0.53493569  0.35778420    -0.02800
C1088       C  0.66755037  0.51587848  0.37674306     0.04000
N1089       N  0.69166323  0.53073464  0.39739673     0.66500
H1090       H  0.68491507  0.46751380  0.38802256     0.15400
H1091       H  0.60483149  0.53294785  0.32393758     0.15100
N1092       N  0.59850481  0.47004014  0.31389629     0.74200
O1093       O  0.68628520  0.53261264  0.42787475    -0.39300
O1094       O  0.72064966  0.53387351  0.38691282    -0.39200
O1095       O  0.56897312  0.46724390  0.32283300    -0.39900
O1096       O  0.60558834  0.46748854  0.28381300    -0.40000
C1097       C  0.51722083  0.87182292  0.16708159    -0.12200
C1098       C  0.53355084  0.85655057  0.14061866     0.04800
C1099       C  0.51452670  0.84426321  0.11429294    -0.07500
C1100       C  0.48017320  0.84540388  0.11607951    -0.08300
C1101       C  0.46417454  0.85933129  0.14326721    -0.02800
C1102       C  0.48300120  0.87325564  0.16862871     0.04000
N1103       N  0.46785853  0.88631474  0.19751619     0.66500
H1104       H  0.53096950  0.88167379  0.18757788     0.15400
H1105       H  0.46587859  0.83490486  0.09627360     0.15100
N1106       N  0.52940970  0.83006667  0.08585080     0.74200
O1107       O  0.46183174  0.86750955  0.22142959    -0.39300
O1108       O  0.46685269  0.91699888  0.20167148    -0.39200
O1109       O  0.52894833  0.79930468  0.08218986    -0.39900
O1110       O  0.53567432  0.84814625  0.06145039    -0.40000
C1111       C  0.63040055  0.98232146  0.17128254    -0.12200
C1112       C  0.64559902  0.96522869  0.14561048     0.04800
C1113       C  0.66087924  0.98320493  0.12018360    -0.07500
C1114       C  0.66120768  0.01761467  0.12117604    -0.08300
C1115       C  0.64714177  0.03487181  0.14756579    -0.02800
C1116       C  0.63135704  0.01665317  0.17279456     0.04000
N1117       N  0.61685563  0.03230369  0.20068615     0.66500
H1118       H  0.61888607  0.96888995  0.19118144     0.15400
H1119       H  0.67333453  0.03079534  0.10149639     0.15100
N1120       N  0.67579291  0.96697362  0.09287899     0.74200
O1121       O  0.58637823  0.03782021  0.20081030    -0.39300
O1122       O  0.63240892  0.03285674  0.22748919    -0.39200
O1123       O  0.65936427  0.96293530  0.06693016    -0.39900
O1124       O  0.70663110  0.96426860  0.09182566    -0.40000
C1125       C  0.61801842  0.78585680  0.25854633    -0.12200
C1126       C  0.61923493  0.77601988  0.22546464     0.04800
C1127       C  0.61957292  0.74204678  0.21836464    -0.07500
C1128       C  0.62042485  0.71908018  0.24404735    -0.08300
C1129       C  0.62126378  0.72904636  0.27706269    -0.02800
C1130       C  0.61921890  0.76291179  0.28419505     0.04000
N1131       N  0.61744727  0.77451454  0.31726666     0.66500
H1132       H  0.61649846  0.81165678  0.26464674     0.15400
H1133       H  0.62139572  0.69324484  0.23800386     0.15100
N1134       N  0.62071053  0.73026377  0.18534958     0.74200
O1135       O  0.64290705  0.78587845  0.33070589    -0.39300
O1136       O  0.58973206  0.78068883  0.32968593    -0.39200
O1137       O  0.64746353  0.71938730  0.17413781    -0.39900
O1138       O  0.59425360  0.72279393  0.17111983    -0.40000
C1139       C  0.88257520  0.51512923  0.15800025    -0.12200
C1140       C  0.85593572  0.53119544  0.14302430     0.04800
C1141       C  0.83189630  0.51190503  0.12681016    -0.07500
C1142       C  0.83437181  0.47774431  0.12689568    -0.08300
C1143       C  0.85977624  0.46178615  0.14356483    -0.02800
C1144       C  0.88454542  0.48074550  0.15862530     0.04000
N1145       N  0.91203846  0.46558462  0.17428709     0.66500
H1146       H  0.90151520  0.52920149  0.17020690     0.15400
H1147       H  0.81511186  0.46356118  0.11528677     0.15100
N1148       N  0.80392485  0.52620962  0.11118386     0.74200
O1149       O  0.93782470  0.46048148  0.15785697    -0.39300
O1150       O  0.91339090  0.46487885  0.20525418    -0.39200
O1151       O  0.80277334  0.52698300  0.08022641    -0.39900
O1152       O  0.77765099  0.52933835  0.12734341    -0.40000
C1153       C  0.97802592  0.62227934  0.15846242    -0.12200
C1154       C  0.96172942  0.64692182  0.14083205     0.04800
C1155       C  0.98052756  0.67008717  0.12319199    -0.07500
C1156       C  0.01483425  0.66934354  0.12529104    -0.08300
C1157       C  0.03120256  0.64581298  0.14463920    -0.02800
C1158       C  0.01225857  0.62137830  0.16045541     0.04000
N1159       N  0.02689799  0.59559472  0.17910758     0.66500
H1160       H  0.96401611  0.60388316  0.17163397     0.15400
H1161       H  0.02865095  0.68801299  0.11233111     0.15100
N1162       N  0.96539080  0.69592768  0.10490871     0.74200
O1163       O  0.03393121  0.60065526  0.20887097    -0.39300
O1164       O  0.02312651  0.56646696  0.16931816    -0.39200
O1165       O  0.96175971  0.72368304  0.11820190    -0.39900
O1166       O  0.96374743  0.69362120  0.07403446    -0.40000
C1167       C  0.73655942  0.61702934  0.21199222    -0.12200
C1168       C  0.76942388  0.61224168  0.22106001     0.04800
C1169       C  0.77648222  0.60501095  0.25430427    -0.07500
C1170       C  0.75162356  0.60733727  0.27798279    -0.08300
C1171       C  0.71932276  0.61565100  0.26919214    -0.02800
C1172       C  0.71161762  0.61883344  0.23549617     0.04000
N1173       N  0.67865771  0.62349830  0.22447812     0.66500
H1174       H  0.73010283  0.61974737  0.18637789     0.15400
H1175       H  0.75790663  0.60313843  0.30350088     0.15100
N1176       N  0.80843890  0.59487898  0.26457794     0.74200
O1177       O  0.66854516  0.65220088  0.21865589    -0.39300
O1178       O  0.66312455  0.59935647  0.21287255    -0.39200
O1179       O  0.81572367  0.56477171  0.26345053    -0.39900
O1180       O  0.82530972  0.61377594  0.28233611    -0.40000
C1181       C  0.77994509  0.75547734  0.11855498    -0.12200
C1182       C  0.77107044  0.72255951  0.12320207     0.04800
C1183       C  0.73755621  0.71439672  0.12592371    -0.07500
C1184       C  0.71379639  0.73906240  0.12439929    -0.08300
C1185       C  0.72258498  0.77212500  0.12073068    -0.02800
C1186       C  0.75618192  0.78023159  0.11727089     0.04000
N1187       N  0.76686519  0.81345968  0.11377750     0.66500
H1188       H  0.80561303  0.76215394  0.11630924     0.15400
H1189       H  0.68823807  0.73223310  0.12684663     0.15100
N1190       N  0.72724404  0.68182215  0.13361153     0.74200
O1191       O  0.77462773  0.82960668  0.13905549    -0.39300
O1192       O  0.77566632  0.82372479  0.08586818    -0.39200
O1193       O  0.71953845  0.67534897  0.16292156    -0.39900
O1194       O  0.71672728  0.66359760  0.11088707    -0.40000
C1195       C  0.98140513  0.83430229  0.37143343    -0.12200
C1196       C  0.96444046  0.85866425  0.35419306     0.04800
C1197       C  0.98208024  0.88441998  0.33926059    -0.07500
C1198       C  0.01642306  0.88424272  0.34013195    -0.08300
C1199       C  0.03359483  0.85847100  0.35537392    -0.02800
C1200       C  0.01556135  0.83372415  0.37199217     0.04000
N1201       N  0.03125040  0.80700555  0.38854557     0.66500
H1202       H  0.96811987  0.81447711  0.38320594     0.15400
H1203       H  0.02960974  0.90371033  0.32772495     0.15100
N1204       N  0.96556284  0.91105840  0.32347008     0.74200
O1205       O  0.03484752  0.80831793  0.41930866    -0.39300
O1206       O  0.03340054  0.77958058  0.37425879    -0.39200
O1207       O  0.96019975  0.93709711  0.33940054    -0.39900
O1208       O  0.96345101  0.91148561  0.29254399    -0.40000
C1209       C  0.87569683  0.98179299  0.33473500    -0.12200
C1210       C  0.85534777  0.96408311  0.35606884     0.04800
C1211       C  0.83746349  0.98126196  0.38039122    -0.07500
C1212       C  0.83798168  0.01568844  0.38096913    -0.08300
C1213       C  0.85636524  0.03349061  0.35784888    -0.02800
C1214       C  0.87657933  0.01604147  0.33551272     0.04000
N1215       N  0.89819139  0.03256527  0.31330224     0.66500
H1216       H  0.89031940  0.96907744  0.31648852     0.15400
H1217       H  0.82305199  0.02846505  0.39890522     0.15100
N1218       N  0.81932473  0.96423141  0.40515299     0.74200
O1219       O  0.92733042  0.03821751  0.32210839    -0.39300
O1220       O  0.89099482  0.03385698  0.28317213    -0.39200
O1221       O  0.83262570  0.95894409  0.43264984    -0.39900
O1222       O  0.78855078  0.96199506  0.40259806    -0.40000
C1223       C  0.75200735  0.77448332  0.39001941    -0.12200
C1224       C  0.78147984  0.76806120  0.37323077     0.04800
C1225       C  0.78579289  0.73700234  0.35832567    -0.07500
C1226       C  0.76062204  0.71389854  0.35949144    -0.08300
C1227       C  0.73073775  0.72068936  0.37525717    -0.02800
C1228       C  0.72681029  0.75123660  0.39128858     0.04000
N1229       N  0.69754212  0.75930041  0.40891333     0.66500
H1230       H  0.74819967  0.79787171  0.40209708     0.15400
H1231       H  0.76444201  0.69065727  0.34712207     0.15100
N1232       N  0.81484607  0.72874288  0.34050830     0.74200
O1233       O  0.69573713  0.75267851  0.43915544    -0.39300
O1234       O  0.67743457  0.77939478  0.39657466    -0.39200
O1235       O  0.83607664  0.71054707  0.35388128    -0.39900
O1236       O  0.81485604  0.73185532  0.30966912    -0.40000
C1237       C  0.75438200  0.88910011  0.21808924    -0.12200
C1238       C  0.72477459  0.87259667  0.22320035     0.04800
C1239       C  0.71869565  0.85752440  0.25374500    -0.07500
C1240       C  0.74246769  0.85867171  0.27840146    -0.08300
C1241       C  0.77234655  0.87517331  0.27354479    -0.02800
C1242       C  0.77792726  0.89102945  0.24301214     0.04000
N1243       N  0.80685554  0.90986815  0.23695843     0.66500
H1244       H  0.75900534  0.90113539  0.19477211     0.15400
H1245       H  0.73748351  0.84617430  0.30138571     0.15100
N1246       N  0.68919478  0.83960778  0.25969952     0.74200
O1247       O  0.83032039  0.89706527  0.22127040    -0.39300
O1248       O  0.80563885  0.94068830  0.23993317    -0.39200
O1249       O  0.69009975  0.80864063  0.25899950    -0.39900
O1250       O  0.66568277  0.85374644  0.27412159    -0.40000
C1251       C  0.88184941  0.74389413  0.28065470    -0.12200
C1252       C  0.87522750  0.77605902  0.26954530     0.04800
C1253       C  0.86709363  0.78057626  0.23605763    -0.07500
C1254       C  0.86629920  0.75362222  0.21473487    -0.08300
C1255       C  0.87250947  0.72162741  0.22596958    -0.02800
C1256       C  0.88011285  0.71680962  0.25934076     0.04000
N1257       N  0.88646017  0.68465797  0.27186706     0.66500
H1258       H  0.88778157  0.73955166  0.30624694     0.15400
H1259       H  0.86008515  0.75774257  0.18913565     0.15100
N1260       N  0.85948498  0.81227852  0.22308582     0.74200
O1261       O  0.91235443  0.66963678  0.26383035    -0.39300
O1262       O  0.86480530  0.67012622  0.28856943    -0.39200
O1263       O  0.88117945  0.82787962  0.20740270    -0.39900
O1264       O  0.82983981  0.82095456  0.22067681    -0.40000
C1265       C  0.16591785  0.37862558  0.98024867    -0.12200
C1266       C  0.14740510  0.35493136  0.96370599     0.04800
C1267       C  0.12688302  0.33382263  0.98212958    -0.07500
C1268       C  0.12737592  0.33507791  0.01647704    -0.08300
C1269       C  0.14771044  0.35732778  0.03298386    -0.02800
C1270       C  0.16587990  0.38028639  0.01446337     0.04000
N1271       N  0.18229499  0.40711447  0.02973654     0.66500
H1272       H  0.18055235  0.39612052  0.96654054     0.15400
H1273       H  0.11276637  0.31760318  0.03022013     0.15100
N1274       N  0.10618697  0.31020720  0.96669231     0.74200
O1275       O  0.21268373  0.40506723  0.03533092    -0.39300
O1276       O  0.16906769  0.43507385  0.02814457    -0.39200
O1277       O  0.11713273  0.28170877  0.96135164    -0.39900
O1278       O  0.07557797  0.31474853  0.96735861    -0.40000
C1279       C  0.33909741  0.13003900  0.97953456    -0.12200
C1280       C  0.36315340  0.14871763  0.96333417     0.04800
C1281       C  0.38698338  0.16516761  0.98247159    -0.07500
C1282       C  0.38549235  0.16353624  0.01691041    -0.08300
C1283       C  0.36031414  0.14619527  0.03300358    -0.02800
C1284       C  0.33728193  0.12881224  0.01375627     0.04000
N1285       N  0.31140252  0.11013039  0.02835440     0.66500
H1286       H  0.32078569  0.11676911  0.96558137     0.15400
H1287       H  0.40334509  0.17719626  0.03107258     0.15100
N1288       N  0.41171887  0.18514156  0.96763789     0.74200
O1289       O  0.28331629  0.12290257  0.03130657    -0.39300
O1290       O  0.31440423  0.07937936  0.03071153    -0.39200
O1291       O  0.40695093  0.21563832  0.96482827    -0.39900
O1292       O  0.44039269  0.17387308  0.96435426    -0.40000
C1293       C  0.29017496  0.25781317  0.87913912    -0.12200
C1294       C  0.27906977  0.22532942  0.87514926     0.04800
C1295       C  0.24492830  0.21963075  0.87296353    -0.07500
C1296       C  0.22302377  0.24607860  0.87402763    -0.08300
C1297       C  0.23427131  0.27848305  0.87697223    -0.09200
C1298       C  0.26822438  0.28425247  0.88003053     0.04000
N1299       N  0.28079630  0.31659202  0.88519667     0.66500
H1300       H  0.31617760  0.26291110  0.88121934     0.15400
H1301       H  0.19698768  0.24120851  0.87167064     0.15100
N1302       N  0.23185162  0.18727391  0.86985725     0.74200
O1303       O  0.28454552  0.32689906  0.91418985    -0.39300
O1304       O  0.29483810  0.33138849  0.86184896    -0.39200
O1305       O  0.22001562  0.17335371  0.89491151    -0.39900
O1306       O  0.22416000  0.17687118  0.84170703    -0.40000
C1307       C  0.34676931  0.37909041  0.51603009    -0.12200
C1308       C  0.36425847  0.35416974  0.53227047     0.04800
C1309       C  0.38336050  0.33216803  0.51340611    -0.07500
C1310       C  0.38294765  0.33411236  0.47910423    -0.08300
C1311       C  0.36362204  0.35749530  0.46288063    -0.02800
C1312       C  0.34653992  0.38113543  0.48168522     0.04000
N1313       N  0.32949616  0.40777655  0.46641747     0.66500
H1314       H  0.33289474  0.39694337  0.53006110     0.15400
H1315       H  0.39632036  0.31585130  0.46511524     0.15100
N1316       N  0.40158518  0.30620643  0.52828971     0.74200
O1317       O  0.29858804  0.40706486  0.46468604    -0.39300
O1318       O  0.34421855  0.43473022  0.46234836    -0.39200
O1319       O  0.38785077  0.27879266  0.53265701    -0.39900
O1320       O  0.43248223  0.30751257  0.52754970    -0.40000
C1321       C  0.37867329  0.26224160  0.78136025    -0.12200
C1322       C  0.38326243  0.22902672  0.77320515     0.04800
C1323       C  0.38837732  0.22059595  0.73983008    -0.07500
C1324       C  0.38747782  0.24497579  0.71562317    -0.08300
C1325       C  0.38240000  0.27800277  0.72380848    -0.02800
C1326       C  0.37849294  0.28667022  0.75715135     0.04000
N1327       N  0.37216941  0.31980401  0.76676305     0.66500
H1328       H  0.37477156  0.26938401  0.80670345     0.15400
H1329       H  0.39084760  0.23796556  0.69015822     0.15100
N1330       N  0.39371801  0.18741221  0.72975361     0.74200
O1331       O  0.34285996  0.32899748  0.77077973    -0.39300
O1332       O  0.39509895  0.33665313  0.77895675    -0.39200
O1333       O  0.37082547  0.17204645  0.71570458    -0.39900
O1334       O  0.42276083  0.17698641  0.72697085    -0.40000
C1335       C  0.25288444  0.36740679  0.71678632    -0.12200
C1336       C  0.28275637  0.38234788  0.72403416     0.04800
C1337       C  0.28702011  0.39712272  0.75497162    -0.07500
C1338       C  0.26153335  0.39591949  0.77836504    -0.08300
C1339       C  0.23140775  0.38028537  0.77129525    -0.02800
C1340       C  0.22739972  0.36598445  0.73974162     0.04000
N1341       N  0.19803843  0.34907371  0.73072477     0.66500
H1342       H  0.24967024  0.35560832  0.69271097     0.15400
H1343       H  0.26531804  0.40752073  0.80212575     0.15100
N1344       N  0.31642997  0.41482537  0.76216289     0.74200
O1345       O  0.17689203  0.36357785  0.71332592    -0.39300
O1346       O  0.19666600  0.31826868  0.73383740    -0.39200
O1347       O  0.32205700  0.44168279  0.74773151    -0.39900
O1348       O  0.33893280  0.40128406  0.77858750    -0.40000
C1349       C  0.15222009  0.12054424  0.47994760    -0.12200
C1350       C  0.13863957  0.14846304  0.46489938     0.04800
C1351       C  0.12533662  0.17344562  0.48481001    -0.07500
C1352       C  0.12797713  0.17119221  0.51899379    -0.08300
C1353       C  0.14395389  0.14449730  0.53413704    -0.02800
C1354       C  0.15467329  0.11815209  0.51420758     0.04000
N1355       N  0.16926717  0.08938415  0.52802637     0.66500
H1356       H  0.16198550  0.10085226  0.46494175     0.15400
H1357       H  0.11891669  0.19149159  0.53360358     0.15100
N1358       N  0.11216729  0.20284019  0.47085162     0.74200
O1359       O  0.15164094  0.06446454  0.53329555    -0.39300
O1360       O  0.20009545  0.08641534  0.52796104    -0.39200
O1361       O  0.08154092  0.20744397  0.47128721    -0.39900
O1362       O  0.13100250  0.22686743  0.46561665    -0.40000
C1363       C  0.11259853  0.24742519  0.72664259    -0.12200
C1364       C  0.13497495  0.22121960  0.72969703     0.04800
C1365       C  0.15627721  0.22071541  0.75709031    -0.07500
C1366       C  0.15569203  0.24646907  0.77971856    -0.08300
C1367       C  0.13370387  0.27287262  0.77651171    -0.02800
C1368       C  0.11143512  0.27283833  0.74992847     0.04000
N1369       N  0.08639291  0.29727432  0.74707392     0.66500
H1370       H  0.09545861  0.24798057  0.70632782     0.15400
H1371       H  0.17288162  0.24569996  0.80000183     0.15100
N1372       N  0.17911302  0.19456389  0.76229313     0.74200
O1373       O  0.08983616  0.32035994  0.72667652    -0.39300
O1374       O  0.05838417  0.29171131  0.75911708    -0.39200
O1375       O  0.20906318  0.19906766  0.75580840    -0.39900
O1376       O  0.17096931  0.17080499  0.78046655    -0.40000
C1377       C  0.29118114  0.14037960  0.73998449    -0.12200
C1378       C  0.28460476  0.12472048  0.76992458     0.04800
C1379       C  0.25398338  0.10894569  0.77408540    -0.07500
C1380       C  0.23108450  0.10919496  0.74842076    -0.08300
C1381       C  0.23793520  0.12481323  0.71832798    -0.02800
C1382       C  0.26854552  0.14055839  0.71443819     0.04000
N1383       N  0.27768038  0.15664853  0.68468308     0.66500
H1384       H  0.31413126  0.15303939  0.73617393     0.15400
H1385       H  0.20777572  0.09703142  0.75223270     0.15100
N1386       N  0.24557576  0.09245996  0.80392229     0.74200
O1387       O  0.27064588  0.18661967  0.68104548    -0.39300
O1388       O  0.30040615  0.14428249  0.66762154    -0.39200
O1389       O  0.22643781  0.10628780  0.82401064    -0.39900
O1390       O  0.25035693  0.06192580  0.80617562    -0.40000
C1391       C  0.28560767  0.24747780  0.60937564    -0.12200
C1392       C  0.27665659  0.27962785  0.61837159     0.04800
C1393       C  0.24305995  0.28627628  0.62428809    -0.07500
C1394       C  0.22026451  0.26067786  0.62444737    -0.08300
C1395       C  0.22931754  0.22834006  0.61686289    -0.02800
C1396       C  0.26225088  0.22215615  0.60750478     0.04000
N1397       N  0.27245250  0.19081369  0.59534386     0.66500
H1398       H  0.31091481  0.24188152  0.60344917     0.15400
H1399       H  0.19492133  0.26647277  0.63006371     0.15100
N1400       N  0.23100923  0.31893140  0.62869280     0.74200
O1401       O  0.26499527  0.18291878  0.56631762    -0.39300
O1402       O  0.29577623  0.17597255  0.60928500    -0.39200
O1403       O  0.22702900  0.33674021  0.60362122    -0.39900
O1404       O  0.21509226  0.32563099  0.65442952    -0.40000
C1405       C  0.37850581  0.52174178  0.65136540    -0.12200
C1406       C  0.35138962  0.53692656  0.63649749     0.04800
C1407       C  0.32787179  0.51735185  0.62026548    -0.07500
C1408       C  0.33135317  0.48314868  0.62014892    -0.08300
C1409       C  0.35769929  0.46791487  0.63634385    -0.02800
C1410       C  0.38194021  0.48757307  0.65123549     0.04000
N1411       N  0.41059093  0.47327734  0.66557150     0.66500
H1412       H  0.39712458  0.53650184  0.66327118     0.15400
H1413       H  0.31225950  0.46838133  0.60903627     0.15100
N1414       N  0.29887002  0.53142661  0.60638066     0.74200
O1415       O  0.43532961  0.46781241  0.64770574    -0.39300
O1416       O  0.41364131  0.47274406  0.69641687    -0.39200
O1417       O  0.29513543  0.53122044  0.57561806    -0.39900
O1418       O  0.27429431  0.53648027  0.62459258    -0.40000
C1419       C  0.37716792  0.66973438  0.51316944    -0.12200
C1420       C  0.35575983  0.64796677  0.52917649     0.04800
C1421       C  0.33665880  0.62616827  0.51029736    -0.07500
C1422       C  0.33792346  0.62771307  0.47610246    -0.08300
C1423       C  0.35784897  0.65078726  0.46008209    -0.02800
C1424       C  0.37816760  0.67156027  0.47891049     0.04000
N1425       N  0.39770413  0.69657771  0.46395523     0.66500
H1426       H  0.39184463  0.68683410  0.52725958     0.15400
H1427       H  0.32275451  0.61104629  0.46200273     0.15100
N1428       N  0.31631569  0.60189128  0.52533311     0.74200
O1429       O  0.38529700  0.72455618  0.45902664    -0.39300
O1430       O  0.42848209  0.69325109  0.46300783    -0.39200
O1431       O  0.28562842  0.60608206  0.52596566    -0.39900
O1432       O  0.32784992  0.57352393  0.53004301    -0.40000
C1433       C  0.16927948  0.52094535  0.87960267    -0.12200
C1434       C  0.14719265  0.53716877  0.85869065     0.04800
C1435       C  0.12507215  0.51816564  0.83994181    -0.07500
C1436       C  0.12772062  0.48390070  0.83971238    -0.08300
C1437       C  0.15139286  0.46764346  0.85876561    -0.02800
C1438       C  0.17136104  0.48654465  0.88007963     0.04000
N1439       N  0.19507142  0.47153593  0.90114933     0.66500
H1440       H  0.18610277  0.53499322  0.89463954     0.15400
H1441       H  0.11114845  0.46993057  0.82433058     0.15100
N1442       N  0.09921017  0.53318138  0.82157952     0.74200
O1443       O  0.22458264  0.46976365  0.89188377    -0.39300
O1444       O  0.18835812  0.46777692  0.93119689    -0.39200
O1445       O  0.10159759  0.53529694  0.79073881    -0.39900
O1446       O  0.07155817  0.53718539  0.83500003    -0.40000
C1447       C  0.11899708  0.66462755  0.98013881    -0.12200
C1448       C  0.14574397  0.65026657  0.96366567     0.04800
C1449       C  0.17043970  0.63475933  0.98260305    -0.07500
C1450       C  0.16839416  0.63482659  0.01690432    -0.08300
C1451       C  0.14234870  0.65033298  0.03348270    -0.02800
C1452       C  0.11716907  0.66497526  0.01457421     0.04000
N1453       N  0.09032812  0.68173199  0.02971098     0.66500
H1454       H  0.09979315  0.67673522  0.96630407     0.15400
H1455       H  0.18790090  0.62307201  0.03062844     0.15100
N1456       N  0.19805035  0.61900173  0.96764786     0.74200
O1457       O  0.09235345  0.71224600  0.03467844    -0.39300
O1458       O  0.06261773  0.66798255  0.03094343    -0.39200
O1459       O  0.22515094  0.63392709  0.96624185    -0.39900
O1460       O  0.19735195  0.58839471  0.96288750    -0.40000
C1461       C  0.28134254  0.63152649  0.75447295    -0.12200
C1462       C  0.27332351  0.62673840  0.72125173     0.04800
C1463       C  0.23992061  0.62190604  0.71287933    -0.07500
C1464       C  0.21572228  0.62202267  0.73739900    -0.08300
C1465       C  0.22382359  0.62660864  0.77054362    -0.02800
C1466       C  0.25715365  0.63136601  0.77899270     0.04000
N1467       N  0.26687407  0.63751223  0.81214884     0.66500
H1468       H  0.30662324  0.63556215  0.76161853     0.15400
H1469       H  0.19034577  0.61838386  0.73038802     0.15100
N1470       N  0.22977253  0.61788555  0.67954893     0.74200
O1471       O  0.27790731  0.61413130  0.82924939    -0.39300
O1472       O  0.27228782  0.66666599  0.82111080    -0.39200
O1473       O  0.22363132  0.58943654  0.66896064    -0.39900
O1474       O  0.21912484  0.64245237  0.66396121    -0.40000
C1475       C  0.37667516  0.98278466  0.83105576    -0.12200
C1476       C  0.35533843  0.96638263  0.85255359     0.04800
C1477       C  0.33809711  0.98523430  0.87621301    -0.07500
C1478       C  0.34075861  0.01955855  0.87630191    -0.08300
C1479       C  0.36063581  0.03595230  0.85349654    -0.02800
C1480       C  0.37972852  0.01698309  0.83156508     0.04000
N1481       N  0.40406206  0.03165789  0.81112201     0.66500
H1482       H  0.39139636  0.96900179  0.81370291     0.15400
H1483       H  0.32621368  0.03344975  0.89371494     0.15100
N1484       N  0.31751624  0.97036714  0.90032522     0.74200
O1485       O  0.43355877  0.03017838  0.82029630    -0.39300
O1486       O  0.39785027  0.03645382  0.78113305    -0.39200
O1487       O  0.32545310  0.97308870  0.93014487    -0.39900
O1488       O  0.28807559  0.96404843  0.89312458    -0.40000
C1489       C  0.37880278  0.83627544  0.97773314    -0.12200
C1490       C  0.35432063  0.85402356  0.96101689     0.04800
C1491       C  0.33105879  0.87171335  0.97986521    -0.07500
C1492       C  0.33224691  0.87073127  0.01418805    -0.08300
C1493       C  0.35563642  0.85175103  0.03091270    -0.02800
C1494       C  0.37944033  0.83462162  0.01220680     0.04000
N1495       N  0.40298624  0.81354223  0.02745110     0.66500
H1496       H  0.39675157  0.82221942  0.96401246     0.15400
H1497       H  0.31395509  0.88443008  0.02782843     0.15100
N1498       N  0.30568289  0.89070894  0.96487973     0.74200
O1499       O  0.39631861  0.78348715  0.03096148    -0.39300
O1500       O  0.43242551  0.82284796  0.02972461    -0.39200
O1501       O  0.27826915  0.87740190  0.95943317    -0.39900
O1502       O  0.30717138  0.92155796  0.96673427    -0.40000
C1503       C  0.38860173  0.78234041  0.73964924    -0.12200
C1504       C  0.37541339  0.77375242  0.77059593     0.04800
C1505       C  0.36154806  0.74201428  0.77423929    -0.07500
C1506       C  0.36206636  0.71975634  0.74812278    -0.08300
C1507       C  0.37528240  0.72838964  0.71768364    -0.02800
C1508       C  0.38850366  0.75998020  0.71330522     0.04000
N1509       N  0.40315582  0.76905767  0.68268998     0.66500
H1510       H  0.39917007  0.80643665  0.73583609     0.15400
H1511       H  0.35131240  0.69563830  0.75150113     0.15100
N1512       N  0.34665195  0.73162129  0.80419019     0.74200
O1513       O  0.38708271  0.78598775  0.66232553    -0.39300
O1514       O  0.42996966  0.75615078  0.67401759    -0.39200
O1515       O  0.31599293  0.73462175  0.80755192    -0.39900
O1516       O  0.36196761  0.71162254  0.82222560    -0.40000
C1517       C  0.24150761  0.78443852  0.85930134    -0.12200
C1518       C  0.27315709  0.77758517  0.87118396     0.04800
C1519       C  0.27995314  0.74574658  0.88348802    -0.07500
C1520       C  0.25581981  0.72146445  0.88223044    -0.08300
C1521       C  0.22448584  0.72842062  0.87013761    -0.02800
C1522       C  0.21714911  0.76035835  0.85899418     0.04000
N1523       N  0.18575890  0.76836194  0.84555083     0.66500
H1524       H  0.23553596  0.80858043  0.84982499     0.15400
H1525       H  0.26146732  0.69707000  0.89128342     0.15100
N1526       N  0.31092695  0.73750777  0.89771022     0.74200
O1527       O  0.16469343  0.78214696  0.86364416    -0.39300
O1528       O  0.18265597  0.77010762  0.81475107    -0.39200
O1529       O  0.31409613  0.73862900  0.92852193    -0.39900
O1530       O  0.33134979  0.72122504  0.88108471    -0.40000
C1531       C  0.12054304  0.83691143  0.47948588    -0.12200
C1532       C  0.14284603  0.85744736  0.46312507     0.04800
C1533       C  0.16241684  0.87908207  0.48210451    -0.07500
C1534       C  0.16065360  0.87812597  0.51643303    -0.08300
C1535       C  0.14027951  0.85572298  0.53268869    -0.02800
C1536       C  0.11925851  0.83570859  0.51380074     0.04000
N1537       N  0.09572843  0.81461970  0.52886382     0.66500
H1538       H  0.10466738  0.82070368  0.46564705     0.15400
H1539       H  0.17660768  0.89411967  0.53043352     0.15100
N1540       N  0.18402835  0.90254544  0.46748237     0.74200
O1541       O  0.06611068  0.82360745  0.52934731    -0.39300
O1542       O  0.10246279  0.78457019  0.53236056    -0.39200
O1543       O  0.18058839  0.93234584  0.47521586    -0.39900
O1544       O  0.21160770  0.89303201  0.45703353    -0.40000
C1545       C  0.17190380  0.98042259  0.62903786    -0.12200
C1546       C  0.14434515  0.96497920  0.64290333     0.04800
C1547       C  0.11845123  0.98482659  0.65482093    -0.07500
C1548       C  0.12173285  0.01911697  0.65475422    -0.08300
C1549       C  0.15028273  0.03438991  0.64265643    -0.02800
C1550       C  0.17511662  0.01449812  0.62875707     0.04000
N1551       N  0.20425311  0.02819517  0.61480329     0.66500
H1552       H  0.19185474  0.96597659  0.61898020     0.15400
H1553       H  0.10198796  0.03376500  0.66490602     0.15100
N1554       N  0.08888284  0.97081865  0.66748345     0.74200
O1555       O  0.22976551  0.03046799  0.63221316    -0.39300
O1556       O  0.20662573  0.03068222  0.58398769    -0.39200
O1557       O  0.08426749  0.96998483  0.69813711    -0.39900
O1558       O  0.06487734  0.96646677  0.64840874    -0.40000
C1559       C  0.25055122  0.78126226  0.61486597    -0.12200
C1560       C  0.21803354  0.77070455  0.61952723     0.04800
C1561       C  0.21174938  0.73679434  0.62251735    -0.07500
C1562       C  0.23760218  0.71445840  0.62066763    -0.08300
C1563       C  0.27022235  0.72492943  0.61714573    -0.02800
C1564       C  0.27661603  0.75884777  0.61406595     0.04000
N1565       N  0.30933750  0.77127862  0.61261406     0.66500
H1566       H  0.25603372  0.80721600  0.61311206     0.15400
H1567       H  0.23198984  0.68861403  0.62257960     0.15100
N1568       N  0.17946127  0.72437107  0.62807959     0.74200
O1569       O  0.32231410  0.77661910  0.58496360    -0.39300
O1570       O  0.32133667  0.78469439  0.63781795    -0.39200
O1571       O  0.16290898  0.71419825  0.60396809    -0.39900
O1572       O  0.17168426  0.71524935  0.65667009    -0.40000
C1573       C  0.12066698  0.74513434  0.71671348    -0.12200
C1574       C  0.11623253  0.77791409  0.72622324     0.04800
C1575       C  0.11097600  0.78529989  0.75962890    -0.07500
C1576       C  0.11190647  0.76017704  0.78298465    -0.08300
C1577       C  0.11839786  0.72764447  0.77370818    -0.02800
C1578       C  0.12242865  0.72006861  0.74010569     0.04000
N1579       N  0.13159786  0.68787011  0.72956348     0.66500
H1580       H  0.12457134  0.73917415  0.69112754     0.15400
H1581       H  0.10802138  0.76624921  0.80860637     0.15100
N1582       N  0.10382150  0.81797364  0.77017399     0.74200
O1583       O  0.11109837  0.67049837  0.71419455    -0.39300
O1584       O  0.16165657  0.68052077  0.72815570    -0.39200
O1585       O  0.07436275  0.82611607  0.77527160    -0.39900
O1586       O  0.12657577  0.83550306  0.78170017    -0.40000
C1587       C  0.25101665  0.89365731  0.77029083    -0.12200
C1588       C  0.28004199  0.87587414  0.76447408     0.04800
C1589       C  0.28290205  0.85821364  0.73462671    -0.07500
C1590       C  0.25693018  0.85814424  0.71211462    -0.08300
C1591       C  0.22758897  0.87534567  0.71822086    -0.02800
C1592       C  0.22502972  0.89360055  0.74769176     0.04000
N1593       N  0.19634382  0.91229580  0.75530513     0.66500
H1594       H  0.24818739  0.90759481  0.79277738     0.15400
H1595       H  0.25975094  0.84391107  0.68980490     0.15100
N1596       N  0.31144821  0.83922693  0.72699931     0.74200
O1597       O  0.17507591  0.90026871  0.77437317    -0.39300
O1598       O  0.19627449  0.94280284  0.74985646    -0.39200
O1599       O  0.31058732  0.80845817  0.73058747    -0.39900
O1600       O  0.33381075  0.85180286  0.70961020    -0.40000
C1601       C  0.52588309  0.33656182  0.62751439    -0.12200
C1602       C  0.54204363  0.35880335  0.64827400     0.04800
C1603       C  0.52276165  0.38152045  0.66623819    -0.07500
C1604       C  0.48839516  0.38085187  0.66376856    -0.08300
C1605       C  0.47226453  0.35731515  0.64445627    -0.02800
C1606       C  0.49157499  0.33542595  0.62564912     0.04000
N1607       N  0.47702188  0.31221483  0.60386580     0.66500
H1608       H  0.53994425  0.31938206  0.61285488     0.15400
H1609       H  0.47423759  0.39783537  0.67856324     0.15100
N1610       N  0.53717410  0.40414838  0.68874702     0.74200
O1611       O  0.47945104  0.31704839  0.57336027    -0.39300
O1612       O  0.47117872  0.28357609  0.61415938    -0.39200
O1613       O  0.53306982  0.43448345  0.68400818    -0.39900
O1614       O  0.54489812  0.39422995  0.71709377    -0.40000
C1615       C  0.66145900  0.38091322  0.51589333    -0.12200
C1616       C  0.64746278  0.35450077  0.53305940     0.04800
C1617       C  0.63207826  0.32921908  0.51511109    -0.07500
C1618       C  0.63154107  0.33046165  0.48074638    -0.08300
C1619       C  0.64652435  0.35629583  0.46333828    -0.02800
C1620       C  0.66107459  0.38214507  0.48146626     0.04000
N1621       N  0.67662173  0.40929298  0.46556732     0.66500
H1622       H  0.67333178  0.40055924  0.52930161     0.15400
H1623       H  0.62035821  0.31021948  0.46765645     0.15100
N1624       N  0.61950253  0.30061540  0.53108860     0.74200
O1625       O  0.66074664  0.43560228  0.46150711    -0.39300
O1626       O  0.70747761  0.40963735  0.46287108    -0.39200
O1627       O  0.58886650  0.29692941  0.53367355    -0.39900
O1628       O  0.63810989  0.27615271  0.53513795    -0.40000
C1629       C  0.48799877  0.16958801  0.87333768    -0.12200
C1630       C  0.47231274  0.14772704  0.85170807     0.04800
C1631       C  0.49175911  0.12634286  0.83255000    -0.07500
C1632       C  0.52588422  0.12780060  0.83463146    -0.08300
C1633       C  0.54154501  0.15063403  0.85499119    -0.02800
C1634       C  0.52226676  0.17135929  0.87503594     0.04000
N1635       N  0.53681177  0.19596472  0.89535628     0.66500
H1636       H  0.47361696  0.18621048  0.88833986     0.15400
H1637       H  0.54026504  0.11156838  0.81919368     0.15100
N1638       N  0.47770362  0.10414469  0.80942201     0.74200
O1639       O  0.54105509  0.22445121  0.88390131    -0.39300
O1640       O  0.53797063  0.19160488  0.92603359    -0.39200
O1641       O  0.47161544  0.11427248  0.78075452    -0.39900
O1642       O  0.48145774  0.07377619  0.81408398    -0.40000
C1643       C  0.62802456  0.16737140  0.97964029    -0.12200
C1644       C  0.64991461  0.14572542  0.96408458     0.04800
C1645       C  0.66747080  0.12286681  0.98340995    -0.07500
C1646       C  0.66396155  0.12319437  0.01753557    -0.08300
C1647       C  0.64355406  0.14615137  0.03323983    -0.02800
C1648       C  0.62484984  0.16800413  0.01385232     0.04000
N1649       N  0.60449122  0.19271591  0.02823744     0.66500
H1650       H  0.61415123  0.18492817  0.96525415     0.15400
H1651       H  0.67841676  0.10611398  0.03193223     0.15100
N1652       N  0.69075068  0.10072635  0.96925210     0.74200
O1653       O  0.61748775  0.21904191  0.03808824    -0.39300
O1654       O  0.57409041  0.19230271  0.02244219    -0.39200
O1655       O  0.72090071  0.10770273  0.97042597    -0.39900
O1656       O  0.68222238  0.07155373  0.96330019    -0.40000
C1657       C  0.63759473  0.24354097  0.71380429    -0.12200
C1658       C  0.63390121  0.27632708  0.72372145     0.04800
C1659       C  0.62912007  0.28315019  0.75743617    -0.07500
C1660       C  0.62814142  0.25733358  0.78017957    -0.08300
C1661       C  0.63227747  0.22453802  0.77022604    -0.02800
C1662       C  0.63684746  0.21782776  0.73646676     0.04000
N1663       N  0.64068768  0.18512232  0.72444528     0.66500
H1664       H  0.64101932  0.23759417  0.68808568     0.15400
H1665       H  0.62520222  0.26320220  0.80596977     0.15100
N1666       N  0.62693069  0.31606971  0.76937451     0.74200
O1667       O  0.61548114  0.16886307  0.71678597    -0.39300
O1668       O  0.66825430  0.17639100  0.71331114    -0.39200
O1669       O  0.59966898  0.32677936  0.77950143    -0.39900
O1670       O  0.65288829  0.33105945  0.77712765    -0.40000
C1671       C  0.98828242  0.33135576  0.86590678    -0.12200
C1672       C  0.97173860  0.35587370  0.84823103     0.04800
C1673       C  0.99064808  0.37984025  0.83153535    -0.07500
C1674       C  0.02498941  0.37909427  0.83346848    -0.08300
C1675       C  0.04144884  0.35396978  0.85031755    -0.02800
C1676       C  0.02252889  0.32975078  0.86654787     0.04000
N1677       N  0.03736509  0.30282639  0.88340455     0.66500
H1678       H  0.97460305  0.31256623  0.87883612     0.15400
H1679       H  0.03885937  0.39746749  0.82014937     0.15100
N1680       N  0.97591415  0.40409505  0.81093962     0.74200
O1681       O  0.03728209  0.30277132  0.91436976    -0.39300
O1682       O  0.04105438  0.27597722  0.86837622    -0.39200
O1683       O  0.98182096  0.43393994  0.81662659    -0.39900
O1684       O  0.96624515  0.39586712  0.78266119    -0.40000
C1685       C  0.84235986  0.37653553  0.98246597    -0.12200
C1686       C  0.86251542  0.35474757  0.96486334     0.04800
C1687       C  0.88348247  0.33348043  0.98259561    -0.07500
C1688       C  0.88244776  0.33300443  0.01700559    -0.08300
C1689       C  0.86104598  0.35357661  0.03457294    -0.02800
C1690       C  0.84183631  0.37653135  0.01691565     0.04000
N1691       N  0.82272659  0.40092029  0.03345284     0.66500
H1692       H  0.82691736  0.39382764  0.96941022     0.15400
H1693       H  0.89763704  0.31541737  0.02995428     0.15100
N1694       N  0.90463564  0.31078343  0.96619731     0.74200
O1695       O  0.83617672  0.42762181  0.04154467    -0.39300
O1696       O  0.79181704  0.39927170  0.03256021    -0.39200
O1697       O  0.93497043  0.31677933  0.96453800    -0.39900
O1698       O  0.89448773  0.28214504  0.96019682    -0.40000
C1699       C  0.78902213  0.37267193  0.74036593    -0.12200
C1700       C  0.78241648  0.38480629  0.77200782     0.04800
C1701       C  0.75097435  0.39833262  0.77838566    -0.07500
C1702       C  0.72653716  0.39701777  0.75413892    -0.08300
C1703       C  0.73320435  0.38389515  0.72301464    -0.02800
C1704       C  0.76500191  0.37249317  0.71598413     0.04000
N1705       N  0.77303153  0.35917956  0.68460723     0.66500
H1706       H  0.81293356  0.36264800  0.73440837     0.15400
H1707       H  0.70227997  0.40650932  0.75958084     0.15100
N1708       N  0.74337445  0.41381170  0.80895013     0.74200
O1709       O  0.78769580  0.37716064  0.66407100    -0.39300
O1710       O  0.77365762  0.32840791  0.68103510    -0.39200
O1711       O  0.74487464  0.44469667  0.81092197    -0.39900
O1712       O  0.72744245  0.39811916  0.83038329    -0.40000
C1713       C  0.72236742  0.26091318  0.86056196    -0.12200
C1714       C  0.72970487  0.23052001  0.87522827     0.04800
C1715       C  0.76070611  0.22648464  0.89026441    -0.07500
C1716       C  0.78348398  0.25228799  0.88977758    -0.08300
C1717       C  0.77625876  0.28246839  0.87454229    -0.02800
C1718       C  0.74501418  0.28657640  0.85996853     0.04000
N1719       N  0.73560776  0.31641625  0.84406626     0.66500
H1720       H  0.69883955  0.26494870  0.84884964     0.15400
H1721       H  0.80715607  0.24840737  0.90122674     0.15100
N1722       N  0.76975554  0.19647039  0.90600232     0.74200
O1723       O  0.73958031  0.31909895  0.81341960    -0.39300
O1724       O  0.71578151  0.33540829  0.85845149    -0.39200
O1725       O  0.78723211  0.17601109  0.89060914    -0.39900
O1726       O  0.76742813  0.19425988  0.93684635    -0.40000
C1727       C  0.83154174  0.12829742  0.52037290    -0.12200
C1728       C  0.85732708  0.14453616  0.53624337     0.04800
C1729       C  0.88234880  0.15888390  0.51709327    -0.07500
C1730       C  0.88018615  0.15864442  0.48285558    -0.08300
C1731       C  0.85345195  0.14413091  0.46685872    -0.02800
C1732       C  0.82937602  0.12784742  0.48607261     0.04000
N1733       N  0.80236765  0.11095492  0.47143363     0.66500
H1734       H  0.81231211  0.11672779  0.53465420     0.15400
H1735       H  0.89948514  0.17037182  0.46882230     0.15100
N1736       N  0.91144816  0.17154900  0.53172328     0.74200
O1737       O  0.80473409  0.08053990  0.46599717    -0.39300
O1738       O  0.77436769  0.12423007  0.47149116    -0.39200
O1739       O  0.93760485  0.15528510  0.52844837    -0.39900
O1740       O  0.91315356  0.20179533  0.53821344    -0.40000
C1741       C  0.98960433  0.12666526  0.66633324    -0.12200
C1742       C  0.97322688  0.14730277  0.64392589     0.04800
C1743       C  0.99220116  0.16550541  0.62125369    -0.07500
C1744       C  0.02647238  0.16413386  0.62262980    -0.08300
C1745       C  0.04278207  0.14517538  0.64634920    -0.02800
C1746       C  0.02393054  0.12536431  0.66768417     0.04000
N1747       N  0.03906304  0.10347402  0.69058563     0.66500
H1748       H  0.97570184  0.11167289  0.68336010     0.15400
H1749       H  0.04035730  0.17935333  0.60579679     0.15100
N1750       N  0.97754208  0.18683230  0.59758936     0.74200
O1751       O  0.04057438  0.11139749  0.72051665    -0.39300
O1752       O  0.04372880  0.07393005  0.68247315    -0.39200
O1753       O  0.96846687  0.21510500  0.60645678    -0.39900
O1754       O  0.98311586  0.18165827  0.56755272    -0.40000
C1755       C  0.79287966  0.26257721  0.61429925    -0.12200
C1756       C  0.78421750  0.23115488  0.62546982     0.04800
C1757       C  0.75123853  0.22501594  0.63423743    -0.07500
C1758       C  0.72787551  0.25020801  0.63207310    -0.08300
C1759       C  0.73652281  0.28170882  0.62106838    -0.02800
C1760       C  0.76933374  0.28761913  0.61147431     0.04000
N1761       N  0.77868214  0.31793313  0.59648208     0.66500
H1762       H  0.81790812  0.26743784  0.60671983     0.15400
H1763       H  0.70294041  0.24530946  0.63996068     0.15100
N1764       N  0.74137264  0.19392716  0.64718578     0.74200
O1765       O  0.79895885  0.33628448  0.61093711    -0.39300
O1766       O  0.77444885  0.32141779  0.56596665    -0.39200
O1767       O  0.73948989  0.19020006  0.67791776    -0.39900
O1768       O  0.72731599  0.17356295  0.62857445    -0.40000
C1769       C  0.75125012  0.11119484  0.72044317    -0.12200
C1770       C  0.78212553  0.12467723  0.72719029     0.04800
C1771       C  0.78910721  0.13599296  0.75906792    -0.07500
C1772       C  0.76486457  0.13495775  0.78322308    -0.08300
C1773       C  0.73355242  0.12213868  0.77659544    -0.02800
C1774       C  0.72717570  0.10914681  0.74495613     0.04000
N1775       N  0.69693776  0.09308149  0.73740081     0.66500
H1776       H  0.74594505  0.10182802  0.69610398     0.15400
H1777       H  0.77061661  0.14491756  0.80721444     0.15100
N1778       N  0.81988789  0.15080747  0.76680340     0.74200
O1779       O  0.67455392  0.10870916  0.72278328    -0.39300
O1780       O  0.69562782  0.06214381  0.73841033    -0.39200
O1781       O  0.82148615  0.18166789  0.76891866    -0.39900
O1782       O  0.84208969  0.13355596  0.77983262    -0.40000
C1783       C  0.88766942  0.21639288  0.76097221    -0.12200
C1784       C  0.88508962  0.22525952  0.72776943     0.04800
C1785       C  0.88219171  0.25877839  0.71938334    -0.07500
C1786       C  0.88123630  0.28250222  0.74413700    -0.08300
C1787       C  0.88257554  0.27354444  0.77738018    -0.02800
C1788       C  0.88615821  0.24006364  0.78576758     0.04000
N1789       N  0.88884768  0.22961883  0.81919619     0.66500
H1790       H  0.89038002  0.19081514  0.76780856     0.15400
H1791       H  0.87818322  0.30803489  0.73727223     0.15100
N1792       N  0.87791929  0.26908277  0.68609572     0.74200
O1793       O  0.86351729  0.21982513  0.83412602    -0.39300
O1794       O  0.91676680  0.22258574  0.83062132    -0.39200
O1795       O  0.84941851  0.27550627  0.67580627    -0.39900
O1796       O  0.90243312  0.27913306  0.67002993    -0.40000
C1797       C  0.51695274  0.66241926  0.62022041    -0.12200
C1798       C  0.53310558  0.64200416  0.64291433     0.04800
C1799       C  0.51413319  0.61989260  0.66177575    -0.07500
C1800       C  0.47975513  0.62075680  0.65980151    -0.08300
C1801       C  0.46356348  0.64308959  0.63902834    -0.02800
C1802       C  0.48266807  0.66292346  0.61786249     0.04000
N1803       N  0.46782730  0.68340161  0.59348651     0.66500
H1804       H  0.53100562  0.67863349  0.60449447     0.15400
H1805       H  0.46569731  0.60487538  0.67583883     0.15100
N1806       N  0.52907492  0.59779928  0.68456219     0.74200
O1807       O  0.46483934  0.71376291  0.59890661    -0.39300
O1808       O  0.46563205  0.67297837  0.56436934    -0.39200
O1809       O  0.52949629  0.60502871  0.71470340    -0.39900
O1810       O  0.53467511  0.56858334  0.67587945    -0.40000
C1811       C  0.66510715  0.48642455  0.61555600    -0.12200
C1812       C  0.65034413  0.46953198  0.64187994     0.04800
C1813       C  0.63349216  0.48790309  0.66607501    -0.07500
C1814       C  0.63244137  0.52196022  0.66402557    -0.08300
C1815       C  0.64912459  0.53906521  0.63921615    -0.02800
C1816       C  0.66507237  0.52089796  0.61424369     0.04000
N1817       N  0.68312179  0.53676679  0.58865531     0.66500
H1818       H  0.67825108  0.47296341  0.59675030     0.15400
H1819       H  0.61954819  0.53511167  0.68323619     0.15100
N1820       N  0.61829665  0.47280090  0.69387495     0.74200
O1821       O  0.71361513  0.54097538  0.59203066    -0.39300
O1822       O  0.67051287  0.53937866  0.56046608    -0.39200
O1823       O  0.63436962  0.47036296  0.72026157    -0.39900
O1824       O  0.58741912  0.47147079  0.69505302    -0.40000
C1825       C  0.67085547  0.63638142  0.51824331    -0.12200
C1826       C  0.64334662  0.64966070  0.53428658     0.04800
C1827       C  0.61601798  0.65922819  0.51515022    -0.07500
C1828       C  0.61787390  0.65783088  0.48076302    -0.08300
C1829       C  0.64637906  0.64660710  0.46475426    -0.02800
C1830       C  0.67264137  0.63467043  0.48409625     0.04000
N1831       N  0.70175398  0.62124891  0.46976323     0.66500
H1832       H  0.69179570  0.62781829  0.53221536     0.15400
H1833       H  0.59706254  0.66634996  0.46658722     0.15100
N1834       N  0.58639151  0.67084732  0.52993971     0.74200
O1835       O  0.72648394  0.63947870  0.46586130    -0.39300
O1836       O  0.70541045  0.59049037  0.46902989    -0.39200
O1837       O  0.58050913  0.70126886  0.53036274    -0.39900
O1838       O  0.56328787  0.65088760  0.53514163    -0.40000
C1839       C  0.87916842  0.52138118  0.83572391    -0.12200
C1840       C  0.85806915  0.53712350  0.85787958     0.04800
C1841       C  0.84118380  0.51818230  0.88145032    -0.07500
C1842       C  0.84356628  0.48393726  0.88055747    -0.08300
C1843       C  0.86248129  0.46804902  0.85640641    -0.02800
C1844       C  0.88142369  0.48728387  0.83459779     0.04000
N1845       N  0.90332899  0.47301927  0.81119389     0.66500
H1846       H  0.89298052  0.53551016  0.81789544     0.15400
H1847       H  0.82947456  0.46977816  0.89812570     0.15100
N1848       N  0.82186894  0.53316492  0.90663439     0.74200
O1849       O  0.89244372  0.46523995  0.78324451    -0.39300
O1850       O  0.93361320  0.47852457  0.81429773    -0.39200
O1851       O  0.79099083  0.53261655  0.90440178    -0.39900
O1852       O  0.83489504  0.53893154  0.93414739    -0.40000
C1853       C  0.98075702  0.66697311  0.87163979    -0.12200
C1854       C  0.96378744  0.64434326  0.85211919     0.04800
C1855       C  0.98192127  0.62038779  0.83468631    -0.07500
C1856       C  0.01638788  0.62066993  0.83576471    -0.08300
C1857       C  0.03343056  0.64477843  0.85362094    -0.02800
C1858       C  0.01502330  0.66766152  0.87237407     0.04000
N1859       N  0.03048999  0.69261960  0.89157218     0.66500
H1860       H  0.96739020  0.68543082  0.88536430     0.15400
H1861       H  0.02979894  0.60264100  0.82154625     0.15100
N1862       N  0.96586727  0.59549410  0.81592739     0.74200
O1863       O  0.03372282  0.72101954  0.87956932    -0.39300
O1864       O  0.03292259  0.68878045  0.92224273    -0.39200
O1865       O  0.96514193  0.59788437  0.78502236    -0.39900
O1866       O  0.95990992  0.56810804  0.82916370    -0.40000
C1867       C  0.84984796  0.61859424  0.98001159    -0.12200
C1868       C  0.85588913  0.64871364  0.96413784     0.04800
C1869       C  0.86267084  0.67657715  0.98361387    -0.07500
C1870       C  0.86105313  0.67435237  0.01777416    -0.08300
C1871       C  0.85289185  0.64478515  0.03368421    -0.02800
C1872       C  0.84856438  0.61632772  0.01437171     0.04000
N1873       N  0.84257589  0.58500816  0.02895989     0.66500
H1874       H  0.84544376  0.59665778  0.96572209     0.15400
H1875       H  0.86531274  0.69652006  0.03181096     0.15100
N1876       N  0.87001159  0.70779403  0.96936104     0.74200
O1877       O  0.81385359  0.57348668  0.02864509    -0.39300
O1878       O  0.86646663  0.56601115  0.03434987    -0.39200
O1879       O  0.84720073  0.72836235  0.96521190    -0.39900
O1880       O  0.89944421  0.71733954  0.96817771    -0.40000
C1881       C  0.77868174  0.62373844  0.74606553    -0.12200
C1882       C  0.76843990  0.62313738  0.77903952     0.04800
C1883       C  0.73448229  0.62285438  0.78599767    -0.07500
C1884       C  0.71177695  0.62303562  0.76021556    -0.08300
C1885       C  0.72197406  0.62507195  0.72730291    -0.02800
C1886       C  0.75594794  0.62522616  0.72032289     0.04000
N1887       N  0.76792609  0.62918188  0.68754517     0.66500
H1888       H  0.80459934  0.62461909  0.74017202     0.15400
H1889       H  0.68586779  0.62226857  0.76611736     0.15100
N1890       N  0.72247042  0.62259954  0.81899285     0.74200
O1891       O  0.77598726  0.65743805  0.67768647    -0.39300
O1892       O  0.77764584  0.60431302  0.67181117    -0.39200
O1893       O  0.71443387  0.64939574  0.83234740    -0.39900
O1894       O  0.71239062  0.59598694  0.83124892    -0.40000
C1895       C  0.51896897  0.83720225  0.87225351    -0.12200
C1896       C  0.53551914  0.86070586  0.85316265     0.04800
C1897       C  0.51686324  0.88449628  0.83608679    -0.07500
C1898       C  0.48255957  0.88268957  0.83628546    -0.08300
C1899       C  0.46608160  0.85774302  0.85351007    -0.02800
C1900       C  0.48468695  0.83568609  0.87282585     0.04000
N1901       N  0.46932157  0.81178677  0.89345619     0.66500
H1902       H  0.53269965  0.81940454  0.88648256     0.15400
H1903       H  0.46886400  0.90024791  0.82174520     0.15100
N1904       N  0.53215950  0.90969525  0.81704862     0.74200
O1905       O  0.46758399  0.78235323  0.88394466    -0.39300
O1906       O  0.46479626  0.81832071  0.92343136    -0.39200
O1907       O  0.53467319  0.90626277  0.78633515    -0.39900
O1908       O  0.53647247  0.93767637  0.82962209    -0.40000
C1909       C  0.62547771  0.98517319  0.83651292    -0.12200
C1910       C  0.64649699  0.96835522  0.85806910     0.04800
C1911       C  0.66582135  0.98662565  0.88031929    -0.07500
C1912       C  0.66568860  0.02094182  0.87871423    -0.08300
C1913       C  0.64622022  0.03763755  0.85565824    -0.02800
C1914       C  0.62508960  0.01940945  0.83514029     0.04000
N1915       N  0.60493361  0.03496759  0.81097994     0.66500
H1916       H  0.61006210  0.97166909  0.81958567     0.15400
H1917       H  0.68160918  0.03457013  0.89505880     0.15100
N1918       N  0.68706033  0.97094490  0.90344400     0.74200
O1919       O  0.61539533  0.03769845  0.78190986    -0.39300
O1920       O  0.57473778  0.03888720  0.81668928    -0.39200
O1921       O  0.71737605  0.96902511  0.89735984    -0.39900
O1922       O  0.67703007  0.96609531  0.93238728    -0.40000
C1923       C  0.67132987  0.87244752  0.97959289    -0.12200
C1924       C  0.64615045  0.85570691  0.96293359     0.04800
C1925       C  0.62087982  0.84086183  0.98165824    -0.07500
C1926       C  0.62202757  0.84202218  0.01602376    -0.08300
C1927       C  0.64794948  0.85755593  0.03247305    -0.02800
C1928       C  0.67265815  0.87317261  0.01392490     0.04000
N1929       N  0.70100858  0.88690176  0.02933210     0.66500
H1930       H  0.69108344  0.88389975  0.96596198     0.15400
H1931       H  0.60290935  0.82986364  0.02997111     0.15100
N1932       N  0.59488862  0.82284711  0.96652911     0.74200
O1933       O  0.72488402  0.86839267  0.03626384    -0.39300
O1934       O  0.70524353  0.91757813  0.02881731    -0.39200
O1935       O  0.59556989  0.79187214  0.96727666    -0.39900
O1936       O  0.56821331  0.83726460  0.96016388    -0.40000
C1937       C  0.63138836  0.74543711  0.78041250    -0.12200
C1938       C  0.62063595  0.77748214  0.77340617     0.04800
C1939       C  0.60832983  0.78437097  0.74159227    -0.07500
C1940       C  0.60852829  0.75982477  0.71749555    -0.08300
C1941       C  0.61962368  0.72804727  0.72466447    -0.02800
C1942       C  0.63077821  0.72082974  0.75658928     0.04000
N1943       N  0.64453920  0.68957845  0.76450131     0.66500
H1944       H  0.64107000  0.73935869  0.80444289     0.15400
H1945       H  0.59970598  0.76557970  0.69304970     0.15100
N1946       N  0.59501584  0.81577711  0.73331439     0.74200
O1947       O  0.67532287  0.68700831  0.76653034    -0.39300
O1948       O  0.62667629  0.66815373  0.77798996    -0.39200
O1949       O  0.61060832  0.83434970  0.71404293    -0.39900
O1950       O  0.56491952  0.82113468  0.73830217    -0.40000
C1951       C  0.72711771  0.75534723  0.89374892    -0.12200
C1952       C  0.72871534  0.77985001  0.86948774     0.04800
C1953       C  0.75472603  0.77909379  0.84654293    -0.07500
C1954       C  0.77878166  0.75481498  0.84878235    -0.08300
C1955       C  0.77744249  0.73040233  0.87310033    -0.02800
C1956       C  0.75107580  0.73068693  0.89572174     0.04000
N1957       N  0.74849255  0.70672571  0.92125694     0.66500
H1958       H  0.70740265  0.75553284  0.91161361     0.15400
H1959       H  0.79818196  0.75459919  0.83056191     0.15100
N1960       N  0.75630225  0.80167042  0.81968391     0.74200
O1961       O  0.76131818  0.71251643  0.94886287    -0.39300
O1962       O  0.72730766  0.68427195  0.91886302    -0.39200
O1963       O  0.77840400  0.82334398  0.81939174    -0.39900
O1964       O  0.74143604  0.79490938  0.79335218    -0.40000
C1965       C  0.87747212  0.84062753  0.51498929    -0.12200
C1966       C  0.85236536  0.85774311  0.53137440     0.04800
C1967       C  0.82874429  0.87488580  0.51243923    -0.07500
C1968       C  0.83016273  0.87375122  0.47817503    -0.08300
C1969       C  0.85416977  0.85519236  0.46193370    -0.02800
C1970       C  0.87840231  0.83899095  0.48064627     0.04000
N1971       N  0.90433136  0.82104064  0.46526515     0.66500
H1972       H  0.89599253  0.82749963  0.52883809     0.15400
H1973       H  0.81137998  0.88642422  0.46422681     0.15100
N1974       N  0.80277467  0.89325252  0.52729729     0.74200
O1975       O  0.93158872  0.83494210  0.46050262    -0.39300
O1976       O  0.90262720  0.79014052  0.46381203    -0.39200
O1977       O  0.80379137  0.92417456  0.52614724    -0.39900
O1978       O  0.77561294  0.87934198  0.53259616    -0.40000
C1979       C  0.97889614  0.83382947  0.62388571    -0.12200
C1980       C  0.96276893  0.85805305  0.64235214     0.04800
C1981       C  0.98172840  0.88215714  0.65865470    -0.07500
C1982       C  0.01595226  0.88008305  0.65800370    -0.08300
C1983       C  0.03184799  0.85460557  0.64118812    -0.02800
C1984       C  0.01300521  0.83167616  0.62335658     0.04000
N1985       N  0.02768280  0.80441018  0.60679331     0.66500
H1986       H  0.96497988  0.81527970  0.61089914     0.15400
H1987       H  0.03016938  0.89818665  0.67131275     0.15100
N1988       N  0.96694417  0.90816796  0.67700319     0.74200
O1989       O  0.03570001  0.77938723  0.62324437    -0.39300
O1990       O  0.02380808  0.80162115  0.57618258    -0.39200
O1991       O  0.96637395  0.90642392  0.70795875    -0.39900
O1992       O  0.96258208  0.93563897  0.66331870    -0.40000
C1993       C  0.87970938  0.98214148  0.66263269    -0.12200
C1994       C  0.85607771  0.96743901  0.64228489     0.04800
C1995       C  0.83638532  0.98771075  0.62223824    -0.07500
C1996       C  0.83925194  0.02183898  0.62436356    -0.08300
C1997       C  0.86159501  0.03664055  0.64606162    -0.02800
C1998       C  0.88276070  0.01633759  0.66457697     0.04000
N1999       N  0.90608407  0.02978780  0.68699770     0.66500
H2000       H  0.89538400  0.96702099  0.67790352     0.15400
H2001       H  0.82312465  0.03686940  0.60947859     0.15100
N2002       N  0.81230503  0.97433331  0.60060861     0.74200
O2003       O  0.89829120  0.03301703  0.71683777    -0.39300
O2004       O  0.93598716  0.03060575  0.67894782    -0.39200
O2005       O  0.78296388  0.97189947  0.61026038    -0.39900
O2006       O  0.81840476  0.97336970  0.57024491    -0.40000
C2007       C  0.74090744  0.78535344  0.64019217    -0.12200
C2008       C  0.76978831  0.78084645  0.62174574     0.04800
C2009       C  0.77441523  0.75072816  0.60490250    -0.07500
C2010       C  0.75061615  0.72611358  0.60714250    -0.08300
C2011       C  0.72197755  0.73094966  0.62544848    -0.02800
C2012       C  0.71713487  0.76075638  0.64218314     0.04000
N2013       N  0.68926191  0.76567624  0.66295022     0.66500
H2014       H  0.73696017  0.80780726  0.65391555     0.15400
H2015       H  0.75440732  0.70312761  0.59425766     0.15100
N2016       N  0.80284179  0.74460550  0.58523627     0.74200
O2017       O  0.69168560  0.75948328  0.69324273    -0.39300
O2018       O  0.66581353  0.78327557  0.65293205    -0.39200
O2019       O  0.82527220  0.72629931  0.59629246    -0.39900
O2020       O  0.80177249  0.75055642  0.55482327    -0.40000
C2021       C  0.84840205  0.72213766  0.74255133    -0.12200
C2022       C  0.87352779  0.72113766  0.76620084     0.04800
C2023       C  0.89853715  0.74518657  0.76475406    -0.07500
C2024       C  0.89739726  0.77004866  0.74080516    -0.08300
C2025       C  0.87189750  0.77137792  0.71766220    -0.02800
C2026       C  0.84724972  0.74698201  0.71867914     0.04000
N2027       N  0.81987843  0.74810759  0.69672541     0.66500
H2028       H  0.82878130  0.70419559  0.74328964     0.15400
H2029       H  0.91686959  0.78813392  0.74002221     0.15100
N2030       N  0.92605275  0.74394169  0.78645363     0.74200
O2031       O  0.81842935  0.72848396  0.67279391    -0.39300
O2032       O  0.79844290  0.77029800  0.69978167    -0.39200
O2033       O  0.95211599  0.72999603  0.77712241    -0.39900
O2034       O  0.92670616  0.76239420  0.81133537    -0.40000
C2035       C  0.74306705  0.87739587  0.71368158    -0.12200
C2036       C  0.77538717  0.88181772  0.72415708     0.04800
C2037       C  0.78182628  0.88823817  0.75745788    -0.07500
C2038       C  0.75586670  0.88871854  0.78003933    -0.08300
C2039       C  0.72332663  0.88296327  0.76982165    -0.02800
C2040       C  0.71712052  0.87793590  0.73600330     0.04000
N2041       N  0.68477463  0.87280803  0.72367307     0.66500
H2042       H  0.73791291  0.87266808  0.68797853     0.15400
H2043       H  0.76132303  0.89310940  0.80571129     0.15100
N2044       N  0.81440470  0.89534869  0.76836184     0.74200
O2045       O  0.66797330  0.89731667  0.71484323    -0.39300
O2046       O  0.67720278  0.84469057  0.71315726    -0.39200
O2047       O  0.83109966  0.87338980  0.78248616    -0.39900
O2048       O  0.82794513  0.92194931  0.76002531    -0.40000
loop_ 
_geom_bond_atom_site_label_1 
_geom_bond_atom_site_label_2 
_geom_bond_distance 
_geom_bond_site_symmetry_2 
_ccdc_geom_bond_type 
O1          Cr19   1.976       .  S
O1            C9   1.263       .  A
O2          Cr19   1.998       .  S
O2            C3   1.262       .  A
C3            O4   1.262       .  A
C3         C1966   1.483       .  S
O4          Cr20   1.979       .  S
O5          Cr20   1.997       .  S
O5            C6   1.266       .  A
C6            O7   1.256       .  A
C6         C1980   1.479       .  S
O7          Cr21   1.967       .  S
O8          Cr21   2.006       .  S
O8            C9   1.269       .  A
C9         C1994   1.481       .  S
O10         Cr19   1.991       .  S
O10          C18   1.261       .  A
O11         Cr19   1.972       .  S
O11          C12   1.261       .  A
C12          O13   1.264       .  A
C12        C2008   1.483       .  S
O13         Cr20   2.006       .  S
O14         Cr20   1.973       .  S
O14          C15   1.259       .  A
C15          O16   1.268       .  A
C15        C2025   1.488       .  S
O16         Cr21   2.022       .  S
O17         Cr21   1.969       .  S
O17          C18   1.258       .  A
C18        C2036   1.465       .  S
Cr19         O22   1.768       .  S
Cr20         O22   1.766       .  S
Cr21         O22   1.771       .  S
O23         Cr41   1.977       .  S
O23          C31   1.259       .  A
O24         Cr41   2.003       .  S
O24          C25   1.267       .  A
C25          O26   1.260       .  A
C25        C1896   1.483       .  S
O26         Cr42   1.975       .  S
O27         Cr42   2.000       .  S
O27          C28   1.268       .  A
C28          O29   1.260       .  A
C28        C1910   1.479       .  S
O29         Cr43   1.973       .  S
O30         Cr43   2.007       .  S
O30          C31   1.268       .  A
C31        C1924   1.487       .  S
O32         Cr41   2.012       .  S
O32          C40   1.267       .  A
O33         Cr41   1.967       .  S
O33          C34   1.260       .  A
C34          O35   1.264       .  A
C34        C1938   1.485       .  S
O35         Cr42   2.009       .  S
O36         Cr42   1.975       .  S
O36          C37   1.259       .  A
C37          O38   1.265       .  A
C37        C2039   1.483       .  S
O38         Cr43   2.006       .  S
O39         Cr43   1.970       .  S
O39          C40   1.258       .  A
C40        C1952   1.480       .  S
Cr41         O44   1.766       .  S
Cr42         O44   1.768       .  S
Cr43         O44   1.767       .  S
O45         Cr63   2.013       .  S
O45          C53   1.267       .  A
O46         Cr63   1.960       .  S
O46          C47   1.258       .  A
C47          O48   1.266       .  A
C47        C1840   1.473       .  S
O48         Cr64   2.007       .  S
O49         Cr64   1.970       .  S
O49          C50   1.258       .  A
C50          O51   1.266       .  A
C50        C1868   1.486       .  S
O51         Cr65   2.010       .  S
O52         Cr65   1.975       .  S
O52          C53   1.262       .  A
C53        C1854   1.484       .  S
O54         Cr63   1.982       .  S
O54          C62   1.261       .  A
O55         Cr63   2.006       .  S
O55          C56   1.266       .  A
C56          O57   1.259       .  A
C56        C1882   1.482       .  S
O57         Cr64   1.977       .  S
O58         Cr64   2.014       .  S
O58          C59   1.267       .  A
C59          O60   1.261       .  A
C59        C1955   1.481       .  S
O60         Cr65   1.965       .  S
O61         Cr65   2.023       .  S
O61          C62   1.268       .  A
C62        C2022   1.492       .  S
Cr63         O66   1.765       .  S
Cr64         O66   1.776       .  S
Cr65         O66   1.764       .  S
O67         Cr85   1.980       .  S
O67          C75   1.260       .  A
O68         Cr85   1.994       .  S
O68          C69   1.265       .  A
C69          O70   1.260       .  A
C69        C1826   1.486       .  S
O70         Cr86   1.984       .  S
O71         Cr86   1.999       .  S
O71          C72   1.265       .  A
C72          O73   1.262       .  A
C72        C1798   1.488       .  S
O73         Cr87   1.988       .  S
O74         Cr87   1.993       .  S
O74          C75   1.267       .  A
C75        C1815   1.484       .  S
O76         Cr85   2.008       .  S
O76          C84   1.263       .  A
O77         Cr85   1.967       .  S
O77          C78   1.258       .  A
C78          O79   1.265       .  A
C78        C2011   1.464       .  S
O79         Cr86   2.005       .  S
O80         Cr86   1.967       .  S
O80          C81   1.258       .  A
C81          O82   1.264       .  A
C81        C1941   1.472       .  S
O82         Cr87   2.003       .  S
O83         Cr87   1.974       .  S
O83          C84   1.259       .  A
C84        C1885   1.483       .  S
Cr85         O88   1.775       .  S
Cr86         O88   1.774       .  S
Cr87         O88   1.768       .  S
O89        Cr107   1.986       .  S
O89          C97   1.261       .  A
O90        Cr107   2.000       .  S
O90          C91   1.264       .  A
C91          O92   1.261       .  A
C91        C1728   1.476       .  S
O92        Cr108   1.975       .  S
O93        Cr108   1.998       .  S
O93          C94   1.266       .  A
C94          O95   1.262       .  A
C94        C1997   1.484       .  S
O95        Cr109   1.984       .  S
O96        Cr109   1.997       .  S
O96          C97   1.264       .  A
C97        C1742   1.487       .  S
O98        Cr107   2.000       .  S
O98         C106   1.264       .  A
O99        Cr107   1.983       .  S
O99         C100   1.260       .  A
C100        O101   1.264       .  A
C100       C1756   1.483       .  S
O101       Cr108   2.004       .  S
O102       Cr108   1.971       .  S
O102        C103   1.258       .  A
C103        O104   1.262       .  A
C103       C1770   1.468       .  S
O104       Cr109   2.000       .  S
O105       Cr109   1.967       .  S
O105        C106   1.259       .  A
C106       C1784   1.474       .  S
Cr107       O110   1.779       .  S
Cr108       O110   1.775       .  S
Cr109       O110   1.777       .  S
O111       Cr129   2.004       .  S
O111        C119   1.266       .  A
O112       Cr129   1.974       .  S
O112        C113   1.259       .  A
C113        O114   1.270       .  A
C113       C1672   1.489       .  S
O114       Cr130   2.010       .  S
O115       Cr130   1.976       .  S
O115        C116   1.259       .  A
C116        O117   1.267       .  A
C116       C1686   1.486       .  S
O117       Cr131   2.012       .  S
O118       Cr131   1.967       .  S
O118        C119   1.261       .  A
C119       C1843   1.477       .  S
O120       Cr129   1.969       .  S
O120        C128   1.260       .  A
O121       Cr129   2.005       .  S
O121        C122   1.266       .  A
C122        O123   1.256       .  A
C122       C1787   1.475       .  S
O123       Cr130   1.965       .  S
O124       Cr130   2.014       .  S
O124        C125   1.269       .  A
C125        O126   1.259       .  A
C125       C1717   1.488       .  S
O126       Cr131   1.971       .  S
O127       Cr131   2.016       .  S
O127        C128   1.264       .  A
C128       C1700   1.488       .  S
Cr129       O132   1.769       .  S
Cr130       O132   1.768       .  S
Cr131       O132   1.771       .  S
O133       Cr151   1.968       .  S
O133        C141   1.259       .  A
O134       Cr151   2.000       .  S
O134        C135   1.267       .  A
C135        O136   1.258       .  A
C135       C1633   1.476       .  S
O136       Cr152   1.972       .  S
O137       Cr152   2.005       .  S
O137        C138   1.268       .  A
C138        O139   1.258       .  A
C138       C1644   1.479       .  S
O139       Cr153   1.968       .  S
O140       Cr153   2.007       .  S
O140        C141   1.268       .  A
C141       C1913   1.477       .  S
O142       Cr151   2.008       .  S
O142        C150   1.264       .  A
O143       Cr151   1.971       .  S
O143        C144   1.259       .  A
C144        O145   1.267       .  A
C144       C1661   1.483       .  S
O145       Cr152   2.010       .  S
O146       Cr152   1.958       .  S
O146        C147   1.257       .  A
C147        O148   1.267       .  A
C147       C1714   1.489       .  S
O148       Cr153   2.022       .  S
O149       Cr153   1.964       .  S
O149        C150   1.259       .  A
C150       C1773   1.483       .  S
Cr151       O154   1.769       .  S
Cr152       O154   1.765       .  S
Cr153       O154   1.769       .  S
O155       Cr173   2.003       .  S
O155        C163   1.266       .  A
O156       Cr173   1.982       .  S
O156        C157   1.261       .  A
C157        O158   1.263       .  A
C157       C1812   1.485       .  S
O158       Cr174   1.995       .  S
O159       Cr174   1.983       .  S
O159        C160   1.261       .  A
C160        O161   1.270       .  A
C160       C1602   1.493       .  S
O161       Cr175   2.015       .  S
O162       Cr175   1.979       .  S
O162        C163   1.261       .  A
C163       C1616   1.481       .  S
O164       Cr173   1.982       .  S
O164        C172   1.260       .  A
O165       Cr173   2.010       .  S
O165        C166   1.267       .  A
C166        O167   1.259       .  A
C166       C1703   1.472       .  S
O167       Cr174   1.970       .  S
O168       Cr174   2.007       .  S
O168        C169   1.263       .  A
C169        O170   1.258       .  A
C169       C1658   1.482       .  S
O170       Cr175   1.967       .  S
O171       Cr175   2.010       .  S
O171        C172   1.266       .  A
C172       C1759   1.484       .  S
Cr173       O176   1.778       .  S
Cr174       O176   1.783       .  S
Cr175       O176   1.771       .  S
O177       Cr195   1.960       .  S
O177        C185   1.257       .  A
O178       Cr195   2.007       .  S
O178        C179   1.265       .  A
C179        O180   1.262       .  A
C179       C1535   1.481       .  S
O180       Cr196   1.976       .  S
O181       Cr196   1.993       .  S
O181        C182   1.264       .  A
C182        O183   1.259       .  A
C182       C1546   1.487       .  S
O183       Cr197   1.984       .  S
O184       Cr197   2.004       .  S
O184        C185   1.268       .  A
C185       C1983   1.469       .  S
O186       Cr195   1.999       .  S
O186        C194   1.263       .  A
O187       Cr195   1.973       .  S
O187        C188   1.258       .  A
C188        O189   1.264       .  A
C188       C1560   1.478       .  S
O189       Cr196   2.001       .  S
O190       Cr196   1.971       .  S
O190        C191   1.262       .  A
C191        O192   1.270       .  A
C191       C1591   1.494       .  S
O192       Cr197   2.025       .  S
O193       Cr197   1.971       .  S
O193        C194   1.259       .  A
C194       C1574   1.472       .  S
Cr195       O198   1.773       .  S
Cr196       O198   1.762       .  S
Cr197       O198   1.773       .  S
O199       Cr217   2.015       .  S
O199        C207   1.271       .  A
O200       Cr217   1.977       .  S
O200        C201   1.261       .  A
C201        O202   1.265       .  A
C201       C1899   1.484       .  S
O202       Cr218   2.005       .  S
O203       Cr218   1.982       .  S
O203        C204   1.264       .  A
C204        O205   1.268       .  A
C204       C1490   1.492       .  S
O205       Cr219   2.013       .  S
O206       Cr219   1.976       .  S
O206        C207   1.259       .  A
C207       C1476   1.490       .  S
O208       Cr217   1.975       .  S
O208        C216   1.257       .  A
O209       Cr217   2.018       .  S
O209        C210   1.269       .  A
C210        O211   1.261       .  A
C210       C1504   1.498       .  S
O211       Cr218   1.983       .  S
O212       Cr218   1.999       .  S
O212        C213   1.261       .  A
C213        O214   1.259       .  A
C213       C1518   1.481       .  S
O214       Cr219   1.970       .  S
O215       Cr219   2.015       .  S
O215        C216   1.268       .  A
C216       C1588   1.492       .  S
Cr217       O220   1.768       .  S
Cr218       O220   1.771       .  S
Cr219       O220   1.769       .  S
O221       Cr239   2.001       .  S
O221        C229   1.264       .  A
O222       Cr239   1.983       .  S
O222        C223   1.263       .  A
C223        O224   1.266       .  A
C223       C1434   1.485       .  S
O224       Cr240   2.002       .  S
O225       Cr240   1.993       .  S
O225        C226   1.264       .  A
C226        O227   1.262       .  A
C226       C1857   1.490       .  S
O227       Cr241   1.990       .  S
O228       Cr241   1.983       .  S
O228        C229   1.262       .  A
C229       C1448   1.489       .  S
O230       Cr239   1.972       .  S
O230        C238   1.259       .  A
O231       Cr239   2.000       .  S
O231        C232   1.262       .  A
C232        O233   1.261       .  A
C232       C1465   1.486       .  S
O233       Cr240   1.988       .  S
O234       Cr240   2.000       .  S
O234        C235   1.263       .  A
C235        O236   1.259       .  A
C235       C1577   1.472       .  S
O236       Cr241   1.967       .  S
O237       Cr241   1.995       .  S
O237        C238   1.262       .  A
C238       C1521   1.466       .  S
Cr239       O242   1.777       .  S
Cr240       O242   1.776       .  S
Cr241       O242   1.775       .  S
O243       Cr261   2.002       .  S
O243        C251   1.265       .  A
O244       Cr261   1.972       .  S
O244        C245   1.259       .  A
C245        O246   1.267       .  A
C245       C1406   1.475       .  S
O246       Cr262   2.005       .  S
O247       Cr262   1.985       .  S
O247        C248   1.263       .  A
C248        O249   1.266       .  A
C248       C1801   1.488       .  S
O249       Cr263   2.008       .  S
O250       Cr263   1.964       .  S
O250        C251   1.258       .  A
C251       C1420   1.473       .  S
O252       Cr261   1.956       .  S
O252        C260   1.257       .  A
O253       Cr261   2.006       .  S
O253        C254   1.264       .  A
C254        O255   1.262       .  A
C254       C1462   1.491       .  S
O255       Cr262   1.984       .  S
O256       Cr262   2.004       .  S
O256        C257   1.265       .  A
C257        O258   1.258       .  A
C257       C1507   1.473       .  S
O258       Cr263   1.973       .  S
O259       Cr263   2.015       .  S
O259        C260   1.266       .  A
C260       C1563   1.480       .  S
Cr261       O264   1.774       .  S
Cr262       O264   1.766       .  S
Cr263       O264   1.778       .  S
O265       Cr283   1.998       .  S
O265        C273   1.267       .  A
O266       Cr283   1.970       .  S
O266        C267   1.260       .  A
C267        O268   1.266       .  A
C267       C1745   1.484       .  S
O268       Cr284   2.010       .  S
O269       Cr284   1.974       .  S
O269        C270   1.260       .  A
C270        O271   1.266       .  A
C270       C1549   1.487       .  S
O271       Cr285   2.005       .  S
O272       Cr285   1.985       .  S
O272        C273   1.262       .  A
C273       C1353   1.488       .  S
O274       Cr283   1.973       .  S
O274        C282   1.262       .  A
O275       Cr283   2.011       .  S
O275        C276   1.266       .  A
C276        O277   1.259       .  A
C276       C1364   1.488       .  S
O277       Cr284   1.978       .  S
O278       Cr284   2.002       .  S
O278        C279   1.266       .  A
C279        O280   1.260       .  A
C279       C1381   1.483       .  S
O280       Cr285   1.973       .  S
O281       Cr285   2.016       .  S
O281        C282   1.265       .  A
C282       C1395   1.490       .  S
Cr283       O286   1.760       .  S
Cr284       O286   1.770       .  S
Cr285       O286   1.771       .  S
O287       Cr305   1.982       .  S
O287        C295   1.262       .  A
O288       Cr305   2.002       .  S
O288        C289   1.265       .  A
C289        O290   1.259       .  A
C289       C1409   1.476       .  S
O290       Cr306   1.972       .  S
O291       Cr306   2.007       .  S
O291        C292   1.268       .  A
C292        O293   1.261       .  A
C292       C1308   1.482       .  S
O293       Cr307   1.977       .  S
O294       Cr307   2.013       .  S
O294        C295   1.266       .  A
C295       C1605   1.491       .  S
O296       Cr305   2.007       .  S
O296        C304   1.266       .  A
O297       Cr305   1.978       .  S
O297        C298   1.260       .  A
C298        O299   1.266       .  A
C298       C1336   1.478       .  S
O299       Cr306   2.007       .  S
O300       Cr306   1.977       .  S
O300        C301   1.258       .  A
C301        O302   1.267       .  A
C301       C1392   1.493       .  S
O302       Cr307   2.017       .  S
O303       Cr307   1.972       .  S
O303        C304   1.261       .  A
C304       C1325   1.477       .  S
Cr305       O308   1.780       .  S
Cr306       O308   1.774       .  S
Cr307       O308   1.777       .  S
O309       Cr327   1.985       .  S
O309        C317   1.264       .  A
O310       Cr327   2.000       .  S
O310        C311   1.267       .  A
C311        O312   1.262       .  A
C311       C1280   1.488       .  S
O312       Cr328   1.983       .  S
O313       Cr328   2.000       .  S
O313        C314   1.266       .  A
C314        O315   1.261       .  A
C314       C1630   1.480       .  S
O315       Cr329   1.976       .  S
O316       Cr329   2.000       .  S
O316        C317   1.264       .  A
C317       C1479   1.486       .  S
O318       Cr327   2.006       .  S
O318        C326   1.263       .  A
O319       Cr327   1.986       .  S
O319        C320   1.261       .  A
C320        O321   1.264       .  A
C320       C1294   1.486       .  S
O321       Cr328   2.000       .  S
O322       Cr328   1.979       .  S
O322        C323   1.261       .  A
C323        O324   1.263       .  A
C323       C1322   1.485       .  S
O324       Cr329   2.004       .  S
O325       Cr329   1.962       .  S
O325        C326   1.260       .  A
C326       C1378   1.482       .  S
Cr327       O330   1.773       .  S
Cr328       O330   1.770       .  S
Cr329       O330   1.771       .  S
O331       Cr349   1.984       .  S
O331        C339   1.262       .  A
O332       Cr349   2.018       .  S
O332        C333   1.271       .  A
C333        O334   1.258       .  A
C333       C1437   1.489       .  S
O334       Cr350   1.974       .  S
O335       Cr350   2.012       .  S
O335        C336   1.271       .  A
C336        O337   1.258       .  A
C336       C1266   1.476       .  S
O337       Cr351   1.964       .  S
O338       Cr351   2.000       .  S
O338        C339   1.262       .  A
C339       C1675   1.487       .  S
O340       Cr349   2.028       .  S
O340        C348   1.270       .  A
O341       Cr349   1.977       .  S
O341        C342   1.260       .  A
C342        O343   1.268       .  A
C342       C1339   1.499       .  S
O343       Cr350   2.020       .  S
O344       Cr350   1.976       .  S
O344        C345   1.258       .  A
C345        O346   1.263       .  A
C345       C1297   1.476       .  S
O346       Cr351   2.000       .  S
O347       Cr351   1.959       .  S
O347        C348   1.259       .  A
C348       C1367   1.485       .  S
Cr349       O352   1.769       .  S
Cr350       O352   1.775       .  S
Cr351       O352   1.772       .  S
O353       Cr371   1.968       .  S
O353        C361   1.259       .  A
O354       Cr371   2.006       .  S
O354        C355   1.266       .  A
C355        O356   1.262       .  A
C355       C1210   1.479       .  S
O356       Cr372   1.974       .  S
O357       Cr372   2.001       .  S
O357        C358   1.264       .  A
C358        O359   1.258       .  A
C358       C1196   1.468       .  S
O359       Cr373   1.963       .  S
O360       Cr373   2.007       .  S
O360        C361   1.265       .  A
C361       C1969   1.477       .  S
O362       Cr371   2.005       .  S
O362        C370   1.266       .  A
O363       Cr371   1.974       .  S
O363        C364   1.261       .  A
C364        O365   1.262       .  A
C364       C1241   1.485       .  S
O365       Cr372   2.001       .  S
O366       Cr372   1.986       .  S
O366        C367   1.262       .  A
C367        O368   1.267       .  A
C367       C1252   1.494       .  S
O368       Cr373   2.010       .  S
O369       Cr373   1.965       .  S
O369        C370   1.257       .  A
C370       C1224   1.482       .  S
Cr371       O374   1.766       .  S
Cr372       O374   1.769       .  S
Cr373       O374   1.768       .  S
O375       Cr393   1.990       .  S
O375        C383   1.264       .  A
O376       Cr393   2.004       .  S
O376        C377   1.268       .  A
C377        O378   1.261       .  A
C377       C1154   1.480       .  S
O378       Cr394   1.977       .  S
O379       Cr394   1.987       .  S
O379        C380   1.263       .  A
C380        O381   1.262       .  A
C380       C1871   1.487       .  S
O381       Cr395   1.991       .  S
O382       Cr395   1.987       .  S
O382        C383   1.260       .  A
C383       C1140   1.487       .  S
O384       Cr393   2.010       .  S
O384        C392   1.265       .  A
O385       Cr393   1.996       .  S
O385        C386   1.263       .  A
C386        O387   1.260       .  A
C386       C1255   1.482       .  S
O387       Cr394   1.989       .  S
O388       Cr394   1.970       .  S
O388        C389   1.260       .  A
C389        O390   1.264       .  A
C389       C1182   1.474       .  S
O390       Cr395   2.005       .  S
O391       Cr395   1.972       .  S
O391        C392   1.262       .  A
C392       C1168   1.487       .  S
Cr393       O396   1.773       .  S
Cr394       O396   1.773       .  S
Cr395       O396   1.774       .  S
O397       Cr415   1.974       .  S
O397        C405   1.261       .  A
O398       Cr415   2.001       .  S
O398        C399   1.263       .  A
C399        O400   1.262       .  A
C399       C1112   1.480       .  S
O400       Cr416   1.983       .  S
O401       Cr416   1.990       .  S
O401        C402   1.264       .  A
C402        O403   1.262       .  A
C402       C1098   1.490       .  S
O403       Cr417   1.989       .  S
O404       Cr417   2.004       .  S
O404        C405   1.267       .  A
C405       C1927   1.477       .  S
O406       Cr415   1.995       .  S
O406        C414   1.260       .  A
O407       Cr415   1.977       .  S
O407        C408   1.259       .  A
C408        O409   1.262       .  A
C408       C1238   1.467       .  S
O409       Cr416   1.995       .  S
O410       Cr416   1.974       .  S
O410        C411   1.260       .  A
C411        O412   1.266       .  A
C411       C1126   1.490       .  S
O412       Cr417   2.016       .  S
O413       Cr417   1.976       .  S
O413        C414   1.261       .  A
C414       C1185   1.480       .  S
Cr415       O418   1.781       .  S
Cr416       O418   1.772       .  S
Cr417       O418   1.776       .  S
O419       Cr437   2.008       .  S
O419        C427   1.269       .  A
O420       Cr437   1.971       .  S
O420        C421   1.257       .  A
C421        O422   1.263       .  A
C421       C1070   1.475       .  S
O422       Cr438   1.998       .  S
O423       Cr438   1.978       .  S
O423        C424   1.262       .  A
C424        O425   1.265       .  A
C424       C1829   1.485       .  S
O425       Cr439   2.002       .  S
O426       Cr439   1.972       .  S
O426        C427   1.259       .  A
C427       C1087   1.481       .  S
O428       Cr437   1.971       .  S
O428        C436   1.258       .  A
O429       Cr437   2.015       .  S
O429        C430   1.269       .  A
C430        O431   1.262       .  A
C430       C1129   1.486       .  S
O431       Cr438   1.979       .  S
O432       Cr438   2.008       .  S
O432        C433   1.264       .  A
C433        O434   1.259       .  A
C433       C1227   1.481       .  S
O434       Cr439   1.962       .  S
O435       Cr439   2.007       .  S
O435        C436   1.265       .  A
C436       C1171   1.484       .  S
Cr437       O440   1.765       .  S
Cr438       O440   1.773       .  S
Cr439       O440   1.770       .  S
O441       Cr459   1.977       .  S
O441        C449   1.262       .  A
O442       Cr459   2.000       .  S
O442        C443   1.263       .  A
C443        O444   1.266       .  A
C443       C1115   1.491       .  S
O444       Cr460   1.990       .  S
O445       Cr460   1.990       .  S
O445        C446   1.264       .  A
C446        O447   1.260       .  A
C446       C1647   1.477       .  S
O447       Cr461   1.977       .  S
O448       Cr461   2.011       .  S
O448        C449   1.269       .  A
C449       C1014   1.485       .  S
O450       Cr459   2.003       .  S
O450        C458   1.262       .  A
O451       Cr459   1.981       .  S
O451        C452   1.263       .  A
C452        O453   1.263       .  A
C452       C1045   1.482       .  S
O453       Cr460   2.001       .  S
O454       Cr460   1.979       .  S
O454        C455   1.264       .  A
C455        O456   1.265       .  A
C455       C1031   1.494       .  S
O456       Cr461   2.013       .  S
O457       Cr461   1.970       .  S
O457        C458   1.256       .  A
C458       C1059   1.475       .  S
Cr459       O462   1.774       .  S
Cr460       O462   1.766       .  S
Cr461       O462   1.777       .  S
O463       Cr481   2.013       .  S
O463        C471   1.269       .  A
O464       Cr481   1.979       .  S
O464        C465   1.260       .  A
C465        O466   1.268       .  A
C465       C1619   1.491       .  S
O466       Cr482   2.008       .  S
O467       Cr482   1.972       .  S
O467        C468   1.259       .  A
C468        O469   1.267       .  A
C468        C972   1.480       .  S
O469       Cr483   2.001       .  S
O470       Cr483   1.966       .  S
O470        C471   1.258       .  A
C471       C1084   1.484       .  S
O472       Cr481   1.972       .  S
O472        C480   1.260       .  A
O473       Cr481   2.011       .  S
O473        C474   1.269       .  A
C474        O475   1.260       .  A
C474        C989   1.488       .  S
O475       Cr482   1.975       .  S
O476       Cr482   2.017       .  S
O476        C477   1.266       .  A
C477        O478   1.258       .  A
C477       C1056   1.476       .  S
O478       Cr483   1.955       .  S
O479       Cr483   2.021       .  S
O479        C480   1.267       .  A
C480       C1000   1.493       .  S
Cr481       O484   1.763       .  S
Cr482       O484   1.772       .  S
Cr483       O484   1.768       .  S
O485       Cr503   1.983       .  S
O485        C493   1.263       .  A
O486       Cr503   2.005       .  S
O486        C487   1.266       .  A
C487        O488   1.264       .  A
C487        C947   1.487       .  S
O488       Cr504   1.985       .  S
O489       Cr504   1.987       .  S
O489        C490   1.261       .  A
C490        O491   1.264       .  A
C490       C1213   1.483       .  S
O491       Cr505   1.991       .  S
O492       Cr505   1.987       .  S
O492        C493   1.259       .  A
C493       C1731   1.483       .  S
O494       Cr503   2.006       .  S
O494        C502   1.264       .  A
O495       Cr503   1.994       .  S
O495        C496   1.264       .  A
C496        O497   1.260       .  A
C496        C958   1.480       .  S
O497       Cr504   1.989       .  S
O498       Cr504   1.983       .  S
O498        C499   1.263       .  A
C499        O500   1.261       .  A
C499       C1042   1.482       .  S
O500       Cr505   1.996       .  S
O501       Cr505   1.982       .  S
O501        C502   1.264       .  A
C502        C986   1.491       .  S
Cr503       O506   1.776       .  S
Cr504       O506   1.773       .  S
Cr505       O506   1.777       .  S
O507       Cr525   1.983       .  S
O507        C515   1.262       .  A
O508       Cr525   2.010       .  S
O508        C509   1.266       .  A
C509        O510   1.261       .  A
C509        C930   1.482       .  S
O510       Cr526   1.975       .  S
O511       Cr526   2.000       .  S
O511        C512   1.262       .  A
C512        O513   1.260       .  A
C512       C1143   1.476       .  S
O513       Cr527   1.975       .  S
O514       Cr527   2.005       .  S
O514        C515   1.265       .  A
C515       C1689   1.488       .  S
O516       Cr525   2.011       .  S
O516        C524   1.267       .  A
O517       Cr525   1.984       .  S
O517        C518   1.264       .  A
C518        O519   1.261       .  A
C518        C961   1.489       .  S
O519       Cr526   2.000       .  S
O520       Cr526   1.991       .  S
O520        C521   1.264       .  A
C521        O522   1.268       .  A
C521       C1003   1.497       .  S
O522       Cr527   2.010       .  S
O523       Cr527   1.986       .  S
O523        C524   1.262       .  A
C524       C1028   1.487       .  S
Cr525       O528   1.775       .  S
Cr526       O528   1.780       .  S
Cr527       O528   1.776       .  S
O529       Cr547   1.992       .  S
O529        C537   1.260       .  A
O530       Cr547   1.981       .  S
O530        C531   1.263       .  A
C531        O532   1.270       .  A
C531        C944   1.489       .  S
O532       Cr548   2.014       .  S
O533       Cr548   1.983       .  S
O533        C534   1.262       .  A
C534        O535   1.265       .  A
C534       C1350   1.478       .  S
O535       Cr549   1.994       .  S
O536       Cr549   1.992       .  S
O536        C537   1.262       .  A
C537        C874   1.490       .  S
O538       Cr547   1.972       .  S
O538        C546   1.260       .  A
O539       Cr547   1.993       .  S
O539        C540   1.259       .  A
C540        O541   1.259       .  A
C540        C916   1.478       .  S
O541       Cr548   1.980       .  S
O542       Cr548   2.007       .  S
O542        C543   1.264       .  A
C543        O544   1.261       .  A
C543        C891   1.490       .  S
O544       Cr549   1.980       .  S
O545       Cr549   2.008       .  S
O545        C546   1.266       .  A
C546        C902   1.475       .  S
Cr547       O550   1.779       .  S
Cr548       O550   1.776       .  S
Cr549       O550   1.773       .  S
O551       Cr569   1.989       .  S
O551        C559   1.264       .  A
O552       Cr569   1.977       .  S
O552        C553   1.262       .  A
C553        O554   1.267       .  A
C553        C933   1.481       .  S
O554       Cr570   2.008       .  S
O555       Cr570   1.977       .  S
O555        C556   1.262       .  A
C556        O557   1.265       .  A
C556       C1269   1.476       .  S
O557       Cr571   1.996       .  S
O558       Cr571   1.973       .  S
O558        C559   1.258       .  A
C559        C835   1.473       .  S
O560       Cr569   1.951       .  S
O560        C568   1.258       .  A
O561       Cr569   1.998       .  S
O561        C562   1.261       .  A
C562        O563   1.263       .  A
C562        C919   1.484       .  S
O563       Cr570   1.988       .  S
O564       Cr570   2.004       .  S
O564        C565   1.266       .  A
C565        O566   1.258       .  A
C565        C860   1.486       .  S
O566       Cr571   1.979       .  S
O567       Cr571   2.001       .  S
O567        C568   1.263       .  A
C568        C846   1.473       .  S
Cr569       O572   1.767       .  S
Cr570       O572   1.764       .  S
Cr571       O572   1.779       .  S
O573       Cr591   2.001       .  S
O573        C581   1.264       .  A
O574       Cr591   1.975       .  S
O574        C575   1.261       .  A
C575        O576   1.264       .  A
C575        C804   1.482       .  S
O576       Cr592   1.999       .  S
O577       Cr592   1.988       .  S
O577        C578   1.263       .  A
C578        O579   1.269       .  A
C578       C1017   1.487       .  S
O579       Cr593   2.002       .  S
O580       Cr593   1.981       .  S
O580        C581   1.262       .  A
C581       C1283   1.487       .  S
O582       Cr591   1.974       .  S
O582        C590   1.260       .  A
O583       Cr591   2.010       .  S
O583        C584   1.265       .  A
C584        O585   1.262       .  A
C584        C905   1.491       .  S
O585       Cr592   1.979       .  S
O586       Cr592   2.000       .  S
O586        C587   1.262       .  A
C587        O588   1.260       .  A
C587        C821   1.488       .  S
O588       Cr593   1.977       .  S
O589       Cr593   2.007       .  S
O589        C590   1.266       .  A
C590        C863   1.478       .  S
Cr591       O594   1.773       .  S
Cr592       O594   1.775       .  S
Cr593       O594   1.767       .  S
O595       Cr613   1.995       .  S
O595        C603   1.263       .  A
O596       Cr613   1.984       .  S
O596        C597   1.261       .  A
C597        O598   1.263       .  A
C597        C790   1.489       .  S
O598       Cr614   1.999       .  S
O599       Cr614   1.968       .  S
O599        C600   1.258       .  A
C600        O601   1.266       .  A
C600        C975   1.470       .  S
O601       Cr615   1.999       .  S
O602       Cr615   1.980       .  S
O602        C603   1.262       .  A
C603       C1311   1.478       .  S
O604       Cr613   1.978       .  S
O604        C612   1.261       .  A
O605       Cr613   1.995       .  S
O605        C606   1.262       .  A
C606        O607   1.254       .  A
C606        C849   1.451       .  S
O607       Cr614   1.951       .  S
O608       Cr614   2.002       .  S
O608        C609   1.263       .  A
C609        O610   1.261       .  A
C609        C818   1.478       .  S
O610       Cr615   1.985       .  S
O611       Cr615   2.012       .  S
O611        C612   1.265       .  A
C612        C888   1.491       .  S
Cr613       O616   1.775       .  S
Cr614       O616   1.777       .  S
Cr615       O616   1.774       .  S
O617       Cr635   1.983       .  S
O617        C625   1.261       .  A
O618       Cr635   1.995       .  S
O618        C619   1.263       .  A
C619        O620   1.262       .  A
C619        C832   1.475       .  S
O620       Cr636   1.970       .  S
O621       Cr636   2.002       .  S
O621        C622   1.266       .  A
C622        O623   1.261       .  A
C622       C1451   1.491       .  S
O623       Cr637   1.986       .  S
O624       Cr637   2.001       .  S
O624        C625   1.266       .  A
C625       C1157   1.488       .  S
O626       Cr635   1.998       .  S
O626        C634   1.265       .  A
O627       Cr635   1.980       .  S
O627        C628   1.259       .  A
C628        O629   1.262       .  A
C628        C779   1.474       .  S
O629       Cr636   1.999       .  S
O630       Cr636   1.974       .  S
O630        C631   1.261       .  A
C631        O632   1.265       .  A
C631        C748   1.485       .  S
O632       Cr637   2.007       .  S
O633       Cr637   1.970       .  S
O633        C634   1.258       .  A
C634        C762   1.468       .  S
Cr635       O638   1.778       .  S
Cr636       O638   1.766       .  S
Cr637       O638   1.774       .  S
O639       Cr657   1.991       .  S
O639        C647   1.262       .  A
O640       Cr657   1.997       .  S
O640        C641   1.266       .  A
C641        O642   1.261       .  A
C641        C793   1.489       .  S
O642       Cr658   1.987       .  S
O643       Cr658   1.995       .  S
O643        C644   1.266       .  A
C644        O645   1.259       .  A
C644       C1423   1.471       .  S
O645       Cr659   1.968       .  S
O646       Cr659   1.982       .  S
O646        C647   1.263       .  A
C647       C1073   1.477       .  S
O648       Cr657   2.004       .  S
O648        C656   1.263       .  A
O649       Cr657   1.985       .  S
O649        C650   1.261       .  A
C650        O651   1.266       .  A
C650        C776   1.489       .  S
O651       Cr658   2.000       .  S
O652       Cr658   1.981       .  S
O652        C653   1.262       .  A
C653        O654   1.261       .  A
C653        C734   1.484       .  S
O654       Cr659   2.000       .  S
O655       Cr659   1.963       .  S
O655        C656   1.261       .  A
C656        C723   1.477       .  S
Cr657       O660   1.772       .  S
Cr658       O660   1.766       .  S
Cr659       O660   1.767       .  S
O661       Cr679   1.995       .  S
O661        C669   1.262       .  A
O662       Cr679   2.001       .  S
O662        C663   1.264       .  A
C663        O664   1.264       .  A
C663       C1532   1.485       .  S
O664       Cr680   1.980       .  S
O665       Cr680   1.985       .  S
O665        C666   1.260       .  A
C666        O667   1.264       .  A
C666       C1199   1.480       .  S
O667       Cr681   1.986       .  S
O668       Cr681   1.995       .  S
O668        C669   1.265       .  A
C669        C877   1.494       .  S
O670       Cr679   2.007       .  S
O670        C678   1.267       .  A
O671       Cr679   1.990       .  S
O671        C672   1.263       .  A
C672        O673   1.260       .  A
C672        C737   1.484       .  S
O673       Cr680   1.995       .  S
O674       Cr680   1.977       .  S
O674        C675   1.264       .  A
C675        O676   1.261       .  A
C675        C765   1.484       .  S
O676       Cr681   1.999       .  S
O677       Cr681   1.987       .  S
O677        C678   1.262       .  A
C678        C709   1.495       .  S
Cr679       O682   1.772       .  S
Cr680       O682   1.769       .  S
Cr681       O682   1.773       .  S
O683       Cr701   1.978       .  S
O683        C691   1.262       .  A
O684       Cr701   1.986       .  S
O684        C685   1.264       .  A
C685        O686   1.261       .  A
C685        C807   1.484       .  S
O686       Cr702   1.987       .  S
O687       Cr702   2.009       .  S
O687        C688   1.269       .  A
C688        O689   1.259       .  A
C688       C1493   1.490       .  S
O689       Cr703   1.980       .  S
O690       Cr703   1.997       .  S
O690        C691   1.264       .  A
C691       C1101   1.473       .  S
O692       Cr701   1.993       .  S
O692        C700   1.261       .  A
O693       Cr701   1.979       .  S
O693        C694   1.259       .  A
C694        O695   1.267       .  A
C694        C706   1.480       .  S
O695       Cr702   2.011       .  S
O696       Cr702   1.974       .  S
O696        C697   1.259       .  A
C697        O698   1.264       .  A
C697        C751   1.478       .  S
O698       Cr703   2.004       .  S
O699       Cr703   1.965       .  S
O699        C700   1.257       .  A
C700        C720   1.466       .  S
Cr701       O704   1.777       .  S
Cr702       O704   1.773       .  S
Cr703       O704   1.778       .  S
C705        C706   1.399       .  A
C705        C710   1.400       .  A
C705        H712   1.084       .  S
C706        C707   1.411       .  A
C707        C708   1.403       .  A
C707        N714   1.429       .  S
C708        C709   1.409       .  A
C708        H713   1.083       .  S
C709        C710   1.416       .  A
C710        N711   1.425       .  S
N711        O715   1.262       .  A
N711        O716   1.262       .  A
N714        O718   1.261       .  A
N714        O717   1.262       .  A
C719        C720   1.400       .  A
C719        C724   1.398       .  A
C719        H726   1.083       .  S
C720        C721   1.406       .  A
C721        C722   1.391       .  A
C721        N728   1.426       .  S
C722        C723   1.402       .  A
C722        H727   1.082       .  S
C723        C724   1.416       .  A
C724        N725   1.429       .  S
N725        O729   1.261       .  A
N725        O730   1.262       .  A
N728        O732   1.262       .  A
N728        O731   1.261       .  A
C733        C734   1.400       .  A
C733        C738   1.398       .  A
C733        H740   1.083       .  S
C734        C735   1.416       .  A
C735        C736   1.402       .  A
C735        N742   1.428       .  S
C736        C737   1.403       .  A
C736        H741   1.083       .  S
C737        C738   1.417       .  A
C738        N739   1.428       .  S
N739        O743   1.261       .  A
N739        O744   1.262       .  A
N742        O746   1.262       .  A
N742        O745   1.261       .  A
C747        C748   1.405       .  A
C747        C752   1.399       .  A
C747        H754   1.083       .  S
C748        C749   1.416       .  A
C749        C750   1.400       .  A
C749        N756   1.429       .  S
C750        C751   1.402       .  A
C750        H755   1.083       .  S
C751        C752   1.411       .  A
C752        N753   1.429       .  S
N753        O757   1.261       .  A
N753        O758   1.262       .  A
N756        O760   1.262       .  A
N756        O759   1.262       .  A
C761        C762   1.401       .  A
C761        C766   1.403       .  A
C761        H768   1.071       .  S
C762        C763   1.405       .  A
C763        C764   1.396       .  A
C763        N770   1.427       .  S
C764        C765   1.404       .  A
C764        H769   1.006       .  S
C765        C766   1.418       .  A
C766        N767   1.429       .  S
N767        O771   1.260       .  A
N767        O772   1.261       .  A
N770        O774   1.261       .  A
N770        O773   1.262       .  A
C775        C776   1.408       .  A
C775        C780   1.400       .  A
C775        H782   1.082       .  S
C776        C777   1.415       .  A
C777        C778   1.398       .  A
C777        N784   1.425       .  S
C778        C779   1.400       .  A
C778        H783   1.084       .  S
C779        C780   1.408       .  A
C780        N781   1.429       .  S
N781        O785   1.262       .  A
N781        O786   1.262       .  A
N784        O788   1.262       .  A
N784        O787   1.262       .  A
C789        C790   1.407       .  A
C789        C794   1.406       .  A
C789        H796   1.082       .  S
C790        C791   1.414       .  A
C791        C792   1.394       .  A
C791        N798   1.428       .  S
C792        C793   1.404       .  A
C792        H797   1.083       .  S
C793        C794   1.415       .  A
C794        N795   1.428       .  S
N795        O799   1.262       .  A
N795        O800   1.262       .  A
N798        O802   1.261       .  A
N798        O801   1.262       .  A
C803        C804   1.407       .  A
C803        C808   1.403   1_545  A
C803        H810   1.083       .  S
C804        C805   1.412       .  A
C805        C806   1.391   1_545  A
C805        N812   1.429       .  S
C806        C807   1.405       .  A
C806        H811   1.083       .  S
C807        C808   1.413       .  A
C808        N809   1.428       .  S
N809        O813   1.262       .  A
N809        O814   1.262       .  A
N812        O816   1.260       .  A
N812        O815   1.262       .  A
C817        C818   1.402       .  A
C817        C822   1.404       .  A
C817        H824   1.084       .  S
C818        C819   1.410       .  A
C819        C820   1.397       .  A
C819        N826   1.428       .  S
C820        C821   1.404       .  A
C820        H825   1.084       .  S
C821        C822   1.418       .  A
C822        N823   1.430       .  S
N823        O827   1.262       .  A
N823        O828   1.262       .  A
N826        O830   1.262       .  A
N826        O829   1.262       .  A
C831        C832   1.403       .  A
C831        C836   1.397       .  A
C831        H838   1.083       .  S
C832        C833   1.413       .  A
C833        C834   1.392       .  A
C833        N840   1.428       .  S
C834        C835   1.401       .  A
C834        H839   1.083       .  S
C835        C836   1.412       .  A
C836        N837   1.429       .  S
N837        O841   1.261       .  A
N837        O842   1.262       .  A
N840        O844   1.262       .  A
N840        O843   1.260       .  A
C845        C846   1.406       .  A
C845        C850   1.389       .  A
C845        H852   1.052       .  S
C846        C847   1.414       .  A
C847        C848   1.397       .  A
C847        N854   1.428       .  S
C848        C849   1.399       .  A
C848        H853   1.077       .  S
C849        C850   1.401       .  A
C850        N851   1.429       .  S
N851        O855   1.262       .  A
N851        O856   1.262       .  A
N854        O858   1.262       .  A
N854        O857   1.262       .  A
C859        C860   1.405       .  A
C859        C864   1.396       .  A
C859        H866   1.083       .  S
C860        C861   1.416       .  A
C861        C862   1.403       .  A
C861        N868   1.429       .  S
C862        C863   1.404       .  A
C862        H867   1.084       .  S
C863        C864   1.408       .  A
C864        N865   1.427       .  S
N865        O869   1.260       .  A
N865        O870   1.262       .  A
N868        O872   1.262       .  A
N868        O871   1.262       .  A
C873        C874   1.404       .  A
C873        C878   1.404   1_545  A
C873        H880   1.083       .  S
C874        C875   1.417       .  A
C875        C876   1.397   1_545  A
C875        N882   1.429       .  S
C876        C877   1.405       .  A
C876        H881   1.083       .  S
C877        C878   1.414       .  A
C878        N879   1.423       .  S
N879        O883   1.261       .  A
N879        O884   1.262       .  A
N882        O886   1.261       .  A
N882        O885   1.262       .  A
C887        C888   1.405       .  A
C887        C892   1.400       .  A
C887        H894   1.083       .  S
C888        C889   1.415       .  A
C889        C890   1.404       .  A
C889        N896   1.429       .  S
C890        C891   1.406       .  A
C890        H895   1.083       .  S
C891        C892   1.413       .  A
C892        N893   1.428       .  S
N893        O897   1.262       .  A
N893        O898   1.262       .  A
N896        O900   1.262       .  A
N896        O899   1.262       .  A
C901        C902   1.398       .  A
C901        C906   1.400       .  A
C901        H908   1.083       .  S
C902        C903   1.409       .  A
C903        C904   1.400       .  A
C903        N910   1.427       .  S
C904        C905   1.407       .  A
C904        H909   1.083       .  S
C905        C906   1.419       .  A
C906        N907   1.428       .  S
N907        O911   1.262       .  A
N907        O912   1.261       .  A
N910        O914   1.261       .  A
N910        O913   1.262       .  A
C915        C916   1.399       .  A
C915        C920   1.398       .  A
C915        H922   1.083       .  S
C916        C917   1.413       .  A
C917        C918   1.400       .  A
C917        N924   1.429       .  S
C918        C919   1.404       .  A
C918        H923   1.083       .  S
C919        C920   1.419       .  A
C920        N921   1.430       .  S
N921        O925   1.262       .  A
N921        O926   1.262       .  A
N924        O928   1.261       .  A
N924        O927   1.262       .  A
C929        C930   1.403       .  A
C929        C934   1.398   1_655  A
C929        H936   1.083       .  S
C930        C931   1.413       .  A
C931        C932   1.402   1_655  A
C931        N938   1.430       .  S
C932        C933   1.405       .  A
C932        H937   1.083       .  S
C933        C934   1.411       .  A
C934        N935   1.428       .  S
N935        O939   1.262       .  A
N935        O940   1.262       .  A
N938        O942   1.262       .  A
N938        O941   1.262       .  A
C943        C944   1.405       .  A
C943        C948   1.402   1_455  A
C943        H950   1.083       .  S
C944        C945   1.414       .  A
C945        C946   1.402   1_455  A
C945        N952   1.427       .  S
C946        C947   1.403       .  A
C946        H951   1.083       .  S
C947        C948   1.415       .  A
C948        N949   1.430       .  S
N949        O953   1.262       .  A
N949        O954   1.262       .  A
N952        O956   1.262       .  A
N952        O955   1.261       .  A
C957        C958   1.401       .  A
C957        C962   1.404       .  A
C957        H964   1.083       .  S
C958        C959   1.413       .  A
C959        C960   1.397       .  A
C959        N966   1.428       .  S
C960        C961   1.400       .  A
C960        H965   1.080       .  S
C961        C962   1.418       .  A
C962        N963   1.429       .  S
N963        O967   1.260       .  A
N963        O968   1.262       .  A
N966        O970   1.262       .  A
N966        O969   1.261       .  A
C971        C972   1.406       .  A
C971        C976   1.396       .  A
C971        H978   1.083       .  S
C972        C973   1.414       .  A
C973        C974   1.397       .  A
C973        N980   1.429       .  S
C974        C975   1.401       .  A
C974        H979   1.083       .  S
C975        C976   1.409       .  A
C976        N977   1.428       .  S
N977        O981   1.261       .  A
N977        O982   1.262       .  A
N980        O984   1.262       .  A
N980        O983   1.262       .  A
C985        C986   1.404       .  A
C985        C990   1.401       .  A
C985        H992   1.070       .  S
C986        C987   1.415       .  A
C987        C988   1.400       .  A
C987        N994   1.428       .  S
C988        C989   1.405       .  A
C988        H993   1.081       .  S
C989        C990   1.414       .  A
C990        N991   1.429       .  S
N991        O995   1.262       .  A
N991        O996   1.262       .  A
N994        O998   1.262       .  A
N994        O997   1.262       .  A
C999       C1000   1.405       .  A
C999       C1004   1.400       .  A
C999       H1006   1.083       .  S
C1000      C1001   1.414       .  A
C1001      C1002   1.405       .  A
C1001      N1008   1.428       .  S
C1002      C1003   1.409       .  A
C1002      H1007   1.082       .  S
C1003      C1004   1.414       .  A
C1004      N1005   1.425       .  S
N1005      O1009   1.262       .  A
N1005      O1010   1.262       .  A
N1008      O1012   1.262       .  A
N1008      O1011   1.262       .  A
C1013      C1014   1.405       .  A
C1013      C1018   1.404       .  A
C1013      H1020   1.083       .  S
C1014      C1015   1.410       .  A
C1015      C1016   1.396       .  A
C1015      N1022   1.426       .  S
C1016      C1017   1.403       .  A
C1016      H1021   1.083       .  S
C1017      C1018   1.414       .  A
C1018      N1019   1.426       .  S
N1019      O1023   1.261       .  A
N1019      O1024   1.262       .  A
N1022      O1026   1.262       .  A
N1022      O1025   1.261       .  A
C1027      C1028   1.406       .  A
C1027      C1032   1.410       .  A
C1027      H1034   1.083       .  S
C1028      C1029   1.409       .  A
C1029      C1030   1.395       .  A
C1029      N1036   1.426       .  S
C1030      C1031   1.401       .  A
C1030      H1035   1.077       .  S
C1031      C1032   1.419       .  A
C1032      N1033   1.430       .  S
N1033      O1037   1.261       .  A
N1033      O1038   1.262       .  A
N1036      O1040   1.262       .  A
N1036      O1039   1.261       .  A
C1041      C1042   1.400       .  A
C1041      C1046   1.399       .  A
C1041      H1048   1.083       .  S
C1042      C1043   1.415       .  A
C1043      C1044   1.399       .  A
C1043      N1050   1.428       .  S
C1044      C1045   1.401       .  A
C1044      H1049   1.083       .  S
C1045      C1046   1.415       .  A
C1046      N1047   1.428       .  S
N1047      O1051   1.261       .  A
N1047      O1052   1.262       .  A
N1050      O1054   1.262       .  A
N1050      O1053   1.260       .  A
C1055      C1056   1.402       .  A
C1055      C1060   1.391       .  A
C1055      H1062   1.084       .  S
C1056      C1057   1.412       .  A
C1057      C1058   1.402       .  A
C1057      N1064   1.429       .  S
C1058      C1059   1.405       .  A
C1058      H1063   1.083       .  S
C1059      C1060   1.410       .  A
C1060      N1061   1.428       .  S
N1061      O1065   1.260       .  A
N1061      O1066   1.262       .  A
N1064      O1068   1.262       .  A
N1064      O1067   1.262       .  A
C1069      C1070   1.407       .  A
C1069      C1074   1.404       .  A
C1069      H1076   1.083       .  S
C1070      C1071   1.411       .  A
C1071      C1072   1.389       .  A
C1071      N1078   1.431       .  S
C1072      C1073   1.404       .  A
C1072      H1077   1.083       .  S
C1073      C1074   1.410       .  A
C1074      N1075   1.428       .  S
N1075      O1079   1.262       .  A
N1075      O1080   1.262       .  A
N1078      O1082   1.262       .  A
N1078      O1081   1.262       .  A
C1083      C1084   1.405       .  A
C1083      C1088   1.400       .  A
C1083      H1090   1.083       .  S
C1084      C1085   1.415       .  A
C1085      C1086   1.397       .  A
C1085      N1092   1.429       .  S
C1086      C1087   1.402       .  A
C1086      H1091   1.083       .  S
C1087      C1088   1.414       .  A
C1088      N1089   1.429       .  S
N1089      O1093   1.262       .  A
N1089      O1094   1.262       .  A
N1092      O1096   1.262       .  A
N1092      O1095   1.262       .  A
C1097      C1098   1.410       .  A
C1097      C1102   1.397       .  A
C1097      H1104   1.083       .  S
C1098      C1099   1.415       .  A
C1099      C1100   1.402       .  A
C1099      N1106   1.428       .  S
C1100      C1101   1.403       .  A
C1100      H1105   1.083       .  S
C1101      C1102   1.406       .  A
C1102      N1103   1.430       .  S
N1103      O1107   1.262       .  A
N1103      O1108   1.262       .  A
N1106      O1110   1.262       .  A
N1106      O1109   1.262       .  A
C1111      C1112   1.399       .  A
C1111      C1116   1.400   1_565  A
C1111      H1118   1.084       .  S
C1112      C1113   1.412       .  A
C1113      C1114   1.402   1_565  A
C1113      N1120   1.428       .  S
C1114      C1115   1.405       .  A
C1114      H1119   1.083       .  S
C1115      C1116   1.420       .  A
C1116      N1117   1.429       .  S
N1117      O1121   1.262       .  A
N1117      O1122   1.262       .  A
N1120      O1124   1.262       .  A
N1120      O1123   1.262       .  A
C1125      C1126   1.406       .  A
C1125      C1130   1.401       .  A
C1125      H1132   1.081       .  S
C1126      C1127   1.414       .  A
C1127      C1128   1.403       .  A
C1127      N1134   1.428       .  S
C1128      C1129   1.404       .  A
C1128      H1133   1.081       .  S
C1129      C1130   1.412       .  A
C1130      N1131   1.428       .  S
N1131      O1135   1.262       .  A
N1131      O1136   1.262       .  A
N1134      O1138   1.262       .  A
N1134      O1137   1.261       .  A
C1139      C1140   1.406       .  A
C1139      C1144   1.403       .  A
C1139      H1146   1.083       .  S
C1140      C1141   1.420       .  A
C1141      C1142   1.395       .  A
C1141      N1148   1.429       .  S
C1142      C1143   1.398       .  A
C1142      H1147   1.084       .  S
C1143      C1144   1.412       .  A
C1144      N1145   1.429       .  S
N1145      O1149   1.262       .  A
N1145      O1150   1.262       .  A
N1148      O1152   1.262       .  A
N1148      O1151   1.261       .  A
C1153      C1154   1.401       .  A
C1153      C1158   1.398   1_655  A
C1153      H1160   1.084       .  S
C1154      C1155   1.411       .  A
C1155      C1156   1.401   1_655  A
C1155      N1162   1.428       .  S
C1156      C1157   1.408       .  A
C1156      H1161   1.083       .  S
C1157      C1158   1.414       .  A
C1158      N1159   1.426       .  S
N1159      O1163   1.262       .  A
N1159      O1164   1.261       .  A
N1162      O1166   1.262       .  A
N1162      O1165   1.262       .  A
C1167      C1168   1.403       .  A
C1167      C1172   1.397       .  A
C1167      H1174   1.081       .  S
C1168      C1169   1.414       .  A
C1169      C1170   1.400       .  A
C1169      N1176   1.428       .  S
C1170      C1171   1.405       .  A
C1170      H1175   1.083       .  S
C1171      C1172   1.413       .  A
C1172      N1173   1.429       .  S
N1173      O1177   1.261       .  A
N1173      O1178   1.262       .  A
N1176      O1180   1.261       .  A
N1176      O1179   1.262       .  A
C1181      C1182   1.401       .  A
C1181      C1186   1.398       .  A
C1181      H1188   1.085       .  S
C1182      C1183   1.410       .  A
C1183      C1184   1.396       .  A
C1183      N1190   1.426       .  S
C1184      C1185   1.401       .  A
C1184      H1189   1.083       .  S
C1185      C1186   1.415       .  A
C1186      N1187   1.429       .  S
N1187      O1191   1.262       .  A
N1187      O1192   1.262       .  A
N1190      O1194   1.262       .  A
N1190      O1193   1.261       .  A
C1195      C1196   1.398       .  A
C1195      C1200   1.392   1_655  A
C1195      H1202   1.084       .  S
C1196      C1197   1.409       .  A
C1197      C1198   1.400   1_655  A
C1197      N1204   1.429       .  S
C1198      C1199   1.405       .  A
C1198      H1203   1.083       .  S
C1199      C1200   1.419       .  A
C1200      N1201   1.430       .  S
N1201      O1205   1.262       .  A
N1201      O1206   1.262       .  A
N1204      O1208   1.262       .  A
N1204      O1207   1.262       .  A
C1209      C1210   1.400       .  A
C1209      C1214   1.396   1_565  A
C1209      H1216   1.083       .  S
C1210      C1211   1.414       .  A
C1211      C1212   1.402   1_565  A
C1211      N1218   1.429       .  S
C1212      C1213   1.404       .  A
C1212      H1217   1.083       .  S
C1213      C1214   1.417       .  A
C1214      N1215   1.430       .  S
N1215      O1219   1.262       .  A
N1215      O1220   1.262       .  A
N1218      O1222   1.262       .  A
N1218      O1221   1.262       .  A
C1223      C1224   1.405       .  A
C1223      C1228   1.398       .  A
C1223      H1230   1.083       .  S
C1224      C1225   1.414       .  A
C1225      C1226   1.393       .  A
C1225      N1232   1.428       .  S
C1226      C1227   1.403       .  A
C1226      H1231   1.083       .  S
C1227      C1228   1.414       .  A
C1228      N1229   1.429       .  S
N1229      O1233   1.262       .  A
N1229      O1234   1.262       .  A
N1232      O1236   1.261       .  A
N1232      O1235   1.262       .  A
C1237      C1238   1.397       .  A
C1237      C1242   1.399       .  A
C1237      H1244   1.084       .  S
C1238      C1239   1.408       .  A
C1239      C1240   1.396       .  A
C1239      N1246   1.427       .  S
C1240      C1241   1.405       .  A
C1240      H1245   1.084       .  S
C1241      C1242   1.418       .  A
C1242      N1243   1.428       .  S
N1243      O1247   1.262       .  A
N1243      O1248   1.262       .  A
N1246      O1250   1.262       .  A
N1246      O1249   1.262       .  A
C1251      C1252   1.411       .  A
C1251      C1256   1.405       .  A
C1251      H1258   1.084       .  S
C1252      C1253   1.415       .  A
C1253      C1254   1.400       .  A
C1253      N1260   1.428       .  S
C1254      C1255   1.403       .  A
C1254      H1259   1.085       .  S
C1255      C1256   1.407       .  A
C1256      N1257   1.428       .  S
N1257      O1261   1.262       .  A
N1257      O1262   1.261       .  A
N1260      O1264   1.262       .  A
N1260      O1263   1.262       .  A
C1265      C1266   1.399       .  A
C1265      C1270   1.394   1_556  A
C1265      H1272   1.084       .  S
C1266      C1267   1.414       .  A
C1267      C1268   1.399   1_556  A
C1267      N1274   1.426       .  S
C1268      C1269   1.401       .  A
C1268      H1273   1.083       .  S
C1269      C1270   1.411       .  A
C1270      N1271   1.425       .  S
N1271      O1275   1.262       .  A
N1271      O1276   1.261       .  A
N1274      O1278   1.261       .  A
N1274      O1277   1.262       .  A
C1279      C1280   1.405       .  A
C1279      C1284   1.395   1_556  A
C1279      H1286   1.083       .  S
C1280      C1281   1.415       .  A
C1281      C1282   1.404   1_556  A
C1281      N1288   1.429       .  S
C1282      C1283   1.407       .  A
C1282      H1287   1.083       .  S
C1283      C1284   1.414       .  A
C1284      N1285   1.429       .  S
N1285      O1289   1.262       .  A
N1285      O1290   1.262       .  A
N1288      O1292   1.262       .  A
N1288      O1291   1.262       .  A
C1293      C1294   1.408       .  A
C1293      C1298   1.399       .  A
C1293      H1300   1.083       .  S
C1294      C1295   1.413       .  A
C1295      C1296   1.399       .  A
C1295      N1302   1.428       .  S
C1296      C1297   1.403       .  A
C1296      H1301   1.084       .  S
C1297      C1298   1.409       .  A
C1298      N1299   1.429       .  S
N1299      O1303   1.262       .  A
N1299      O1304   1.262       .  A
N1302      O1306   1.262       .  A
N1302      O1305   1.262       .  A
C1307      C1308   1.405       .  A
C1307      C1312   1.400       .  A
C1307      H1314   1.083       .  S
C1308      C1309   1.413       .  A
C1309      C1310   1.398       .  A
C1309      N1316   1.426       .  S
C1310      C1311   1.401       .  A
C1310      H1315   1.083       .  S
C1311      C1312   1.413       .  A
C1312      N1313   1.430       .  S
N1313      O1317   1.262       .  A
N1313      O1318   1.262       .  A
N1316      O1320   1.260       .  A
N1316      O1319   1.262       .  A
C1321      C1322   1.405       .  A
C1321      C1326   1.400       .  A
C1321      H1328   1.083       .  S
C1322      C1323   1.416       .  A
C1323      C1324   1.399       .  A
C1323      N1330   1.429       .  S
C1324      C1325   1.401       .  A
C1324      H1329   1.084       .  S
C1325      C1326   1.411       .  A
C1326      N1327   1.428       .  S
N1327      O1331   1.262       .  A
N1327      O1332   1.262       .  A
N1330      O1334   1.262       .  A
N1330      O1333   1.261       .  A
C1335      C1336   1.393       .  A
C1335      C1340   1.397       .  A
C1335      H1342   1.099       .  S
C1336      C1337   1.407       .  A
C1337      C1338   1.409       .  A
C1337      N1344   1.430       .  S
C1338      C1339   1.413       .  A
C1338      H1343   1.088       .  S
C1339      C1340   1.420       .  A
C1340      N1341   1.429       .  S
N1341      O1345   1.262       .  A
N1341      O1346   1.262       .  A
N1344      O1348   1.261       .  A
N1344      O1347   1.262       .  A
C1349      C1350   1.404       .  A
C1349      C1354   1.401       .  A
C1349      H1356   1.083       .  S
C1350      C1351   1.409       .  A
C1351      C1352   1.398       .  A
C1351      N1358   1.429       .  S
C1352      C1353   1.409       .  A
C1352      H1357   1.083       .  S
C1353      C1354   1.414       .  A
C1354      N1355   1.429       .  S
N1355      O1359   1.262       .  A
N1355      O1360   1.262       .  A
N1358      O1362   1.262       .  A
N1358      O1361   1.262       .  A
C1363      C1364   1.408       .  A
C1363      C1368   1.404       .  A
C1363      H1370   1.083       .  S
C1364      C1365   1.414       .  A
C1365      C1366   1.396       .  A
C1365      N1372   1.429       .  S
C1366      C1367   1.405       .  A
C1366      H1371   1.083       .  S
C1367      C1368   1.413       .  A
C1368      N1369   1.429       .  S
N1369      O1373   1.262       .  A
N1369      O1374   1.262       .  A
N1372      O1376   1.262       .  A
N1372      O1375   1.262       .  A
C1377      C1378   1.401       .  A
C1377      C1382   1.390       .  A
C1377      H1384   1.079       .  S
C1378      C1379   1.414       .  A
C1379      C1380   1.401       .  A
C1379      N1386   1.429       .  S
C1380      C1381   1.407       .  A
C1380      H1385   1.083       .  S
C1381      C1382   1.412       .  A
C1382      N1383   1.426       .  S
N1383      O1387   1.262       .  A
N1383      O1388   1.261       .  A
N1386      O1390   1.262       .  A
N1386      O1389   1.262       .  A
C1391      C1392   1.407       .  A
C1391      C1396   1.406       .  A
C1391      H1398   1.083       .  S
C1392      C1393   1.416       .  A
C1393      C1394   1.397       .  A
C1393      N1400   1.428       .  S
C1394      C1395   1.402       .  A
C1394      H1399   1.083       .  S
C1395      C1396   1.417       .  A
C1396      N1397   1.430       .  S
N1397      O1401   1.262       .  A
N1397      O1402   1.261       .  A
N1400      O1404   1.261       .  A
N1400      O1403   1.262       .  A
C1405      C1406   1.403       .  A
C1405      C1410   1.398       .  A
C1405      H1412   1.083       .  S
C1406      C1407   1.412       .  A
C1407      C1408   1.400       .  A
C1407      N1414   1.430       .  S
C1408      C1409   1.404       .  A
C1408      H1413   1.083       .  S
C1409      C1410   1.410       .  A
C1410      N1411   1.429       .  S
N1411      O1415   1.262       .  A
N1411      O1416   1.262       .  A
N1414      O1418   1.262       .  A
N1414      O1417   1.261       .  A
C1419      C1420   1.404       .  A
C1419      C1424   1.397       .  A
C1419      H1426   1.083       .  S
C1420      C1421   1.410       .  A
C1421      C1422   1.394       .  A
C1421      N1428   1.428       .  S
C1422      C1423   1.402       .  A
C1422      H1427   1.083       .  S
C1423      C1424   1.411       .  A
C1424      N1425   1.429       .  S
N1425      O1429   1.262       .  A
N1425      O1430   1.262       .  A
N1428      O1432   1.261       .  A
N1428      O1431   1.262       .  A
C1433      C1434   1.404       .  A
C1433      C1438   1.404       .  A
C1433      H1440   1.083       .  S
C1434      C1435   1.413       .  A
C1435      C1436   1.399       .  A
C1435      N1442   1.429       .  S
C1436      C1437   1.403       .  A
C1436      H1441   1.083       .  S
C1437      C1438   1.418       .  A
C1438      N1439   1.429       .  S
N1439      O1443   1.262       .  A
N1439      O1444   1.262       .  A
N1442      O1446   1.262       .  A
N1442      O1445   1.262       .  A
C1447      C1448   1.406       .  A
C1447      C1452   1.403   1_556  A
C1447      H1454   1.083       .  S
C1448      C1449   1.416       .  A
C1449      C1450   1.398   1_556  A
C1449      N1456   1.430       .  S
C1450      C1451   1.406       .  A
C1450      H1455   1.083       .  S
C1451      C1452   1.414       .  A
C1452      N1453   1.428       .  S
N1453      O1457   1.262       .  A
N1453      O1458   1.262       .  A
N1456      O1460   1.262       .  A
N1456      O1459   1.262       .  A
C1461      C1462   1.405       .  A
C1461      C1466   1.402       .  A
C1461      H1468   1.083       .  S
C1462      C1463   1.417       .  A
C1463      C1464   1.402       .  A
C1463      N1470   1.428       .  S
C1464      C1465   1.402       .  A
C1464      H1469   1.083       .  S
C1465      C1466   1.415       .  A
C1466      N1467   1.429       .  S
N1467      O1471   1.262       .  A
N1467      O1472   1.262       .  A
N1470      O1474   1.261       .  A
N1470      O1473   1.262       .  A
C1475      C1476   1.402       .  A
C1475      C1480   1.399   1_565  A
C1475      H1482   1.083       .  S
C1476      C1477   1.417       .  A
C1477      C1478   1.402   1_565  A
C1477      N1484   1.425       .  S
C1478      C1479   1.401       .  A
C1478      H1483   1.083       .  S
C1479      C1480   1.413       .  A
C1480      N1481   1.425       .  S
N1481      O1485   1.260       .  A
N1481      O1486   1.262       .  A
N1484      O1488   1.262       .  A
N1484      O1487   1.261       .  A
C1489      C1490   1.407       .  A
C1489      C1494   1.405   1_556  A
C1489      H1496   1.083       .  S
C1490      C1491   1.415       .  A
C1491      C1492   1.398   1_556  A
C1491      N1498   1.428       .  S
C1492      C1493   1.403       .  A
C1492      H1497   1.083       .  S
C1493      C1494   1.416       .  A
C1494      N1495   1.429       .  S
N1495      O1499   1.262       .  A
N1495      O1500   1.262       .  A
N1498      O1502   1.260       .  A
N1498      O1501   1.262       .  A
C1503      C1504   1.413       .  A
C1503      C1508   1.407       .  A
C1503      H1510   1.083       .  S
C1504      C1505   1.419       .  A
C1505      C1506   1.397       .  A
C1505      N1512   1.425       .  S
C1506      C1507   1.395       .  A
C1506      H1511   1.084       .  S
C1507      C1508   1.406       .  A
C1508      N1509   1.430       .  S
N1509      O1513   1.261       .  A
N1509      O1514   1.262       .  A
N1512      O1516   1.261       .  A
N1512      O1515   1.262       .  A
C1517      C1518   1.405       .  A
C1517      C1522   1.396       .  A
C1517      H1524   1.083       .  S
C1518      C1519   1.417       .  A
C1519      C1520   1.396       .  A
C1519      N1526   1.428       .  S
C1520      C1521   1.397       .  A
C1520      H1525   1.084       .  S
C1521      C1522   1.409       .  A
C1522      N1523   1.429       .  S
N1523      O1527   1.262       .  A
N1523      O1528   1.262       .  A
N1526      O1530   1.260       .  A
N1526      O1529   1.261       .  A
C1531      C1532   1.403       .  A
C1531      C1536   1.398       .  A
C1531      H1538   1.083       .  S
C1532      C1533   1.418       .  A
C1533      C1534   1.399       .  A
C1533      N1540   1.429       .  S
C1534      C1535   1.400       .  A
C1534      H1539   1.083       .  S
C1535      C1536   1.411       .  A
C1536      N1537   1.426       .  S
N1537      O1541   1.261       .  A
N1537      O1542   1.262       .  A
N1540      O1544   1.262       .  A
N1540      O1543   1.262       .  A
C1545      C1546   1.405       .  A
C1545      C1550   1.394   1_565  A
C1545      H1552   1.083       .  S
C1546      C1547   1.414       .  A
C1547      C1548   1.403   1_565  A
C1547      N1554   1.429       .  S
C1548      C1549   1.408       .  A
C1548      H1553   1.083       .  S
C1549      C1550   1.413       .  A
C1550      N1551   1.429       .  S
N1551      O1555   1.262       .  A
N1551      O1556   1.262       .  A
N1554      O1558   1.262       .  A
N1554      O1557   1.262       .  A
C1559      C1560   1.406       .  A
C1559      C1564   1.400       .  A
C1559      H1566   1.083       .  S
C1560      C1561   1.410       .  A
C1561      C1562   1.393       .  A
C1561      N1568   1.428       .  S
C1562      C1563   1.403       .  A
C1562      H1567   1.080       .  S
C1563      C1564   1.411       .  A
C1564      N1565   1.428       .  S
N1565      O1569   1.262       .  A
N1565      O1570   1.262       .  A
N1568      O1572   1.261       .  A
N1568      O1571   1.262       .  A
C1573      C1574   1.402       .  A
C1573      C1578   1.397       .  A
C1573      H1580   1.081       .  S
C1574      C1575   1.409       .  A
C1575      C1576   1.397       .  A
C1575      N1582   1.428       .  S
C1576      C1577   1.403       .  A
C1576      H1581   1.083       .  S
C1577      C1578   1.411       .  A
C1578      N1579   1.429       .  S
N1579      O1583   1.262       .  A
N1579      O1584   1.262       .  A
N1582      O1586   1.262       .  A
N1582      O1585   1.262       .  A
C1587      C1588   1.406       .  A
C1587      C1592   1.403       .  A
C1587      H1594   1.083       .  S
C1588      C1589   1.417       .  A
C1589      C1590   1.400       .  A
C1589      N1596   1.430       .  S
C1590      C1591   1.407       .  A
C1590      H1595   1.083       .  S
C1591      C1592   1.415       .  A
C1592      N1593   1.428       .  S
N1593      O1597   1.262       .  A
N1593      O1598   1.262       .  A
N1596      O1600   1.262       .  A
N1596      O1599   1.262       .  A
C1601      C1602   1.404       .  A
C1601      C1606   1.401       .  A
C1601      H1608   1.083       .  S
C1602      C1603   1.416       .  A
C1603      C1604   1.404       .  A
C1603      N1610   1.427       .  S
C1604      C1605   1.404       .  A
C1604      H1609   1.083       .  S
C1605      C1606   1.413       .  A
C1606      N1607   1.426       .  S
N1607      O1611   1.261       .  A
N1607      O1612   1.262       .  A
N1610      O1614   1.262       .  A
N1610      O1613   1.261       .  A
C1615      C1616   1.403       .  A
C1615      C1620   1.402       .  A
C1615      H1622   1.083       .  S
C1616      C1617   1.410       .  A
C1617      C1618   1.400       .  A
C1617      N1624   1.429       .  S
C1618      C1619   1.407       .  A
C1618      H1623   1.083       .  S
C1619      C1620   1.417       .  A
C1620      N1621   1.429       .  S
N1621      O1625   1.262       .  A
N1621      O1626   1.262       .  A
N1624      O1628   1.262       .  A
N1624      O1627   1.262       .  A
C1629      C1630   1.407       .  A
C1629      C1634   1.400       .  A
C1629      H1636   1.083       .  S
C1630      C1631   1.411       .  A
C1631      C1632   1.394       .  A
C1631      N1638   1.426       .  S
C1632      C1633   1.400       .  A
C1632      H1637   1.083       .  S
C1633      C1634   1.412       .  A
C1634      N1635   1.429       .  S
N1635      O1639   1.262       .  A
N1635      O1640   1.262       .  A
N1638      O1642   1.260       .  A
N1638      O1641   1.262       .  A
C1643      C1644   1.404       .  A
C1643      C1648   1.398   1_556  A
C1643      H1650   1.083       .  S
C1644      C1645   1.413       .  A
C1645      C1646   1.396   1_556  A
C1645      N1652   1.429       .  S
C1646      C1647   1.404       .  A
C1646      H1651   1.083       .  S
C1647      C1648   1.412       .  A
C1648      N1649   1.429       .  S
N1649      O1653   1.262       .  A
N1649      O1654   1.261       .  A
N1652      O1656   1.262       .  A
N1652      O1655   1.262       .  A
C1657      C1658   1.403       .  A
C1657      C1662   1.395       .  A
C1657      H1664   1.083       .  S
C1658      C1659   1.413       .  A
C1659      C1660   1.401       .  A
C1659      N1666   1.429       .  S
C1660      C1661   1.406       .  A
C1660      H1665   1.083       .  S
C1661      C1662   1.413       .  A
C1662      N1663   1.428       .  S
N1663      O1667   1.262       .  A
N1663      O1668   1.262       .  A
N1666      O1670   1.262       .  A
N1666      O1669   1.262       .  A
C1671      C1672   1.403       .  A
C1671      C1676   1.397   1_655  A
C1671      H1678   1.083       .  S
C1672      C1673   1.417       .  A
C1673      C1674   1.402   1_655  A
C1673      N1680   1.427       .  S
C1674      C1675   1.402       .  A
C1674      H1679   1.083       .  S
C1675      C1676   1.415       .  A
C1676      N1677   1.427       .  S
N1677      O1681   1.260       .  A
N1677      O1682   1.262       .  A
N1680      O1684   1.262       .  A
N1680      O1683   1.261       .  A
C1685      C1686   1.405       .  A
C1685      C1690   1.402   1_556  A
C1685      H1692   1.083       .  S
C1686      C1687   1.414       .  A
C1687      C1688   1.401   1_556  A
C1687      N1694   1.428       .  S
C1688      C1689   1.404       .  A
C1688      H1693   1.083       .  S
C1689      C1690   1.415       .  A
C1690      N1691   1.430       .  S
N1691      O1695   1.262       .  A
N1691      O1696   1.262       .  A
N1694      O1698   1.262       .  A
N1694      O1697   1.262       .  A
C1699      C1700   1.405       .  A
C1699      C1704   1.394       .  A
C1699      H1706   1.083       .  S
C1700      C1701   1.418       .  A
C1701      C1702   1.404       .  A
C1701      N1708   1.428       .  S
C1702      C1703   1.401       .  A
C1702      H1707   1.084       .  S
C1703      C1704   1.405       .  A
C1704      N1705   1.425       .  S
N1705      O1709   1.261       .  A
N1705      O1710   1.262       .  A
N1708      O1712   1.261       .  A
N1708      O1711   1.262       .  A
C1713      C1714   1.406       .  A
C1713      C1718   1.395       .  A
C1713      H1720   1.083       .  S
C1714      C1715   1.413       .  A
C1715      C1716   1.403       .  A
C1715      N1722   1.428       .  S
C1716      C1717   1.407       .  A
C1716      H1721   1.083       .  S
C1717      C1718   1.415       .  A
C1718      N1719   1.429       .  S
N1719      O1723   1.262       .  A
N1719      O1724   1.262       .  A
N1722      O1726   1.262       .  A
N1722      O1725   1.262       .  A
C1727      C1728   1.400       .  A
C1727      C1732   1.399       .  A
C1727      H1734   1.083       .  S
C1728      C1729   1.410       .  A
C1729      C1730   1.396       .  A
C1729      N1736   1.424       .  S
C1730      C1731   1.401       .  A
C1730      H1735   1.083       .  S
C1731      C1732   1.419       .  A
C1732      N1733   1.429       .  S
N1733      O1737   1.262       .  A
N1733      O1738   1.262       .  A
N1736      O1740   1.262       .  A
N1736      O1739   1.261       .  A
C1741      C1742   1.408       .  A
C1741      C1746   1.401   1_655  A
C1741      H1748   1.083       .  S
C1742      C1743   1.413       .  A
C1743      C1744   1.399   1_655  A
C1743      N1750   1.427       .  S
C1744      C1745   1.403       .  A
C1744      H1749   1.083       .  S
C1745      C1746   1.412       .  A
C1746      N1747   1.429       .  S
N1747      O1751   1.262       .  A
N1747      O1752   1.262       .  A
N1750      O1754   1.261       .  A
N1750      O1753   1.262       .  A
C1755      C1756   1.403       .  A
C1755      C1760   1.404       .  A
C1755      H1762   1.083       .  S
C1756      C1757   1.412       .  A
C1757      C1758   1.402       .  A
C1757      N1764   1.429       .  S
C1758      C1759   1.404       .  A
C1758      H1763   1.084       .  S
C1759      C1760   1.413       .  A
C1760      N1761   1.429       .  S
N1761      O1765   1.261       .  A
N1761      O1766   1.262       .  A
N1764      O1768   1.262       .  A
N1764      O1767   1.262       .  A
C1769      C1770   1.401       .  A
C1769      C1774   1.401       .  A
C1769      H1776   1.084       .  S
C1770      C1771   1.406       .  A
C1771      C1772   1.394       .  A
C1771      N1778   1.428       .  S
C1772      C1773   1.405       .  A
C1772      H1777   1.083       .  S
C1773      C1774   1.417       .  A
C1774      N1775   1.429       .  S
N1775      O1779   1.261       .  A
N1775      O1780   1.262       .  A
N1778      O1782   1.262       .  A
N1778      O1781   1.261       .  A
C1783      C1784   1.402       .  A
C1783      C1788   1.397       .  A
C1783      H1790   1.084       .  S
C1784      C1785   1.412       .  A
C1785      C1786   1.397       .  A
C1785      N1792   1.429       .  S
C1786      C1787   1.402       .  A
C1786      H1791   1.084       .  S
C1787      C1788   1.413       .  A
C1788      N1789   1.429       .  S
N1789      O1793   1.262       .  A
N1789      O1794   1.262       .  A
N1792      O1796   1.262       .  A
N1792      O1795   1.262       .  A
C1797      C1798   1.406       .  A
C1797      C1802   1.400       .  A
C1797      H1804   1.083       .  S
C1798      C1799   1.413       .  A
C1799      C1800   1.403       .  A
C1799      N1806   1.428       .  S
C1800      C1801   1.406       .  A
C1800      H1805   1.083       .  S
C1801      C1802   1.414       .  A
C1802      N1803   1.430       .  S
N1803      O1807   1.262       .  A
N1803      O1808   1.262       .  A
N1806      O1810   1.262       .  A
N1806      O1809   1.262       .  A
C1811      C1812   1.408       .  A
C1811      C1816   1.405       .  A
C1811      H1818   1.083       .  S
C1812      C1813   1.414       .  A
C1813      C1814   1.390       .  A
C1813      N1820   1.428       .  S
C1814      C1815   1.402       .  A
C1814      H1819   1.083       .  S
C1815      C1816   1.415       .  A
C1816      N1817   1.429       .  S
N1817      O1821   1.262       .  A
N1817      O1822   1.262       .  A
N1820      O1824   1.260       .  A
N1820      O1823   1.262       .  A
C1825      C1826   1.405       .  A
C1825      C1830   1.393       .  A
C1825      H1832   1.083       .  S
C1826      C1827   1.414       .  A
C1827      C1828   1.403       .  A
C1827      N1834   1.429       .  S
C1828      C1829   1.407       .  A
C1828      H1833   1.083       .  S
C1829      C1830   1.415       .  A
C1830      N1831   1.430       .  S
N1831      O1835   1.262       .  A
N1831      O1836   1.262       .  A
N1834      O1838   1.262       .  A
N1834      O1837   1.262       .  A
C1839      C1840   1.400       .  A
C1839      C1844   1.392       .  A
C1839      H1846   1.083       .  S
C1840      C1841   1.410       .  A
C1841      C1842   1.398       .  A
C1841      N1848   1.428       .  S
C1842      C1843   1.406       .  A
C1842      H1847   1.083       .  S
C1843      C1844   1.413       .  A
C1844      N1845   1.428       .  S
N1845      O1849   1.262       .  A
N1845      O1850   1.261       .  A
N1848      O1852   1.262       .  A
N1848      O1851   1.262       .  A
C1853      C1854   1.401       .  A
C1853      C1858   1.397   1_655  A
C1853      H1860   1.083       .  S
C1854      C1855   1.414       .  A
C1855      C1856   1.405   1_655  A
C1855      N1862   1.429       .  S
C1856      C1857   1.406       .  A
C1856      H1861   1.082       .  S
C1857      C1858   1.418       .  A
C1858      N1859   1.430       .  S
N1859      O1863   1.262       .  A
N1859      O1864   1.262       .  A
N1862      O1866   1.262       .  A
N1862      O1865   1.262       .  A
C1867      C1868   1.408       .  A
C1867      C1872   1.402   1_556  A
C1867      H1874   1.081       .  S
C1868      C1869   1.412       .  A
C1869      C1870   1.395   1_556  A
C1869      N1876   1.429       .  S
C1870      C1871   1.407       .  A
C1870      H1875   1.083       .  S
C1871      C1872   1.412       .  A
C1872      N1873   1.428       .  S
N1873      O1877   1.261       .  A
N1873      O1878   1.262       .  A
N1876      O1880   1.262       .  A
N1876      O1879   1.262       .  A
C1881      C1882   1.405       .  A
C1881      C1886   1.400       .  A
C1881      H1888   1.083       .  S
C1882      C1883   1.412       .  A
C1883      C1884   1.399       .  A
C1883      N1890   1.429       .  S
C1884      C1885   1.404       .  A
C1884      H1889   1.083       .  S
C1885      C1886   1.413       .  A
C1886      N1887   1.429       .  S
N1887      O1891   1.262       .  A
N1887      O1892   1.262       .  A
N1890      O1894   1.262       .  A
N1890      O1893   1.262       .  A
C1895      C1896   1.405       .  A
C1895      C1900   1.398       .  A
C1895      H1902   1.083       .  S
C1896      C1897   1.414       .  A
C1897      C1898   1.400       .  A
C1897      N1904   1.429       .  S
C1898      C1899   1.405       .  A
C1898      H1903   1.083       .  S
C1899      C1900   1.414       .  A
C1900      N1901   1.429       .  S
N1901      O1905   1.262       .  A
N1901      O1906   1.262       .  A
N1904      O1908   1.262       .  A
N1904      O1907   1.262       .  A
C1909      C1910   1.404       .  A
C1909      C1914   1.395   1_565  A
C1909      H1916   1.083       .  S
C1910      C1911   1.413       .  A
C1911      C1912   1.399   1_565  A
C1911      N1918   1.429       .  S
C1912      C1913   1.404       .  A
C1912      H1917   1.083       .  S
C1913      C1914   1.412       .  A
C1914      N1915   1.429       .  S
N1915      O1919   1.262       .  A
N1915      O1920   1.262       .  A
N1918      O1922   1.262       .  A
N1918      O1921   1.262       .  A
C1923      C1924   1.407       .  A
C1923      C1928   1.399   1_556  A
C1923      H1930   1.083       .  S
C1924      C1925   1.416       .  A
C1925      C1926   1.400   1_556  A
C1925      N1932   1.429       .  S
C1926      C1927   1.402       .  A
C1926      H1931   1.083       .  S
C1927      C1928   1.410       .  A
C1928      N1929   1.429       .  S
N1929      O1933   1.262       .  A
N1929      O1934   1.261       .  A
N1932      O1936   1.262       .  A
N1932      O1935   1.262       .  A
C1937      C1938   1.405       .  A
C1937      C1942   1.395       .  A
C1937      H1944   1.083       .  S
C1938      C1939   1.417       .  A
C1939      C1940   1.401       .  A
C1939      N1946   1.429       .  S
C1940      C1941   1.401       .  A
C1940      H1945   1.084       .  S
C1941      C1942   1.408       .  A
C1942      N1943   1.427       .  S
N1943      O1947   1.261       .  A
N1943      O1948   1.262       .  A
N1946      O1950   1.262       .  A
N1946      O1949   1.261       .  A
C1951      C1952   1.405       .  A
C1951      C1956   1.402       .  A
C1951      H1958   1.083       .  S
C1952      C1953   1.412       .  A
C1953      C1954   1.394       .  A
C1953      N1960   1.429       .  S
C1954      C1955   1.403       .  A
C1954      H1959   1.083       .  S
C1955      C1956   1.414       .  A
C1956      N1957   1.429       .  S
N1957      O1961   1.262       .  A
N1957      O1962   1.262       .  A
N1960      O1964   1.262       .  A
N1960      O1963   1.262       .  A
C1965      C1966   1.405       .  A
C1965      C1970   1.400       .  A
C1965      H1972   1.083       .  S
C1966      C1967   1.417       .  A
C1967      C1968   1.396       .  A
C1967      N1974   1.429       .  S
C1968      C1969   1.401       .  A
C1968      H1973   1.083       .  S
C1969      C1970   1.411       .  A
C1970      N1971   1.428       .  S
N1971      O1975   1.262       .  A
N1971      O1976   1.262       .  A
N1974      O1978   1.262       .  A
N1974      O1977   1.261       .  A
C1979      C1980   1.403       .  A
C1979      C1984   1.393   1_655  A
C1979      H1986   1.083       .  S
C1980      C1981   1.415       .  A
C1981      C1982   1.397   1_655  A
C1981      N1988   1.429       .  S
C1982      C1983   1.401       .  A
C1982      H1987   1.084       .  S
C1983      C1984   1.411       .  A
C1984      N1985   1.430       .  S
N1985      O1989   1.262       .  A
N1985      O1990   1.261       .  A
N1988      O1992   1.262       .  A
N1988      O1991   1.262       .  A
C1993      C1994   1.405       .  A
C1993      C1998   1.401   1_565  A
C1993      H2000   1.083       .  S
C1994      C1995   1.411       .  A
C1995      C1996   1.398   1_565  A
C1995      N2002   1.427       .  S
C1996      C1997   1.405       .  A
C1996      H2001   1.083       .  S
C1997      C1998   1.412       .  A
C1998      N1999   1.428       .  S
N1999      O2003   1.262       .  A
N1999      O2004   1.262       .  A
N2002      O2006   1.261       .  A
N2002      O2005   1.262       .  A
C2007      C2008   1.407       .  A
C2007      C2012   1.396       .  A
C2007      H2014   1.083       .  S
C2008      C2009   1.418       .  A
C2009      C2010   1.398       .  A
C2009      N2016   1.429       .  S
C2010      C2011   1.398       .  A
C2010      H2015   1.084       .  S
C2011      C2012   1.406       .  A
C2012      N2013   1.429       .  S
N2013      O2017   1.262       .  A
N2013      O2018   1.262       .  A
N2016      O2020   1.262       .  A
N2016      O2019   1.262       .  A
C2021      C2022   1.406       .  A
C2021      C2026   1.403       .  A
C2021      H2028   1.084       .  S
C2022      C2023   1.415       .  A
C2023      C2024   1.406       .  A
C2023      N2030   1.429       .  S
C2024      C2025   1.404       .  A
C2024      H2029   1.083       .  S
C2025      C2026   1.414       .  A
C2026      N2027   1.430       .  S
N2027      O2031   1.262       .  A
N2027      O2032   1.262       .  A
N2030      O2034   1.262       .  A
N2030      O2033   1.262       .  A
C2035      C2036   1.396       .  A
C2035      C2040   1.393       .  A
C2035      H2042   1.084       .  S
C2036      C2037   1.405       .  A
C2037      C2038   1.401       .  A
C2037      N2044   1.430       .  S
C2038      C2039   1.410       .  A
C2038      H2043   1.083       .  S
C2039      C2040   1.415       .  A
C2040      N2041   1.426       .  S
N2041      O2045   1.262       .  A
N2041      O2046   1.261       .  A
N2044      O2048   1.262       .  A
N2044      O2047   1.262       .  A
