geometry optimzed in LAMMPS
_audit_creation_date              2020-11-30 
_audit_creation_method            'lammps2cif' 
_symmetry_space_group_name_H-M    'P1' 
_symmetry_Int_Tables_number       1 
_symmetry_cell_setting            triclinic 
loop_ 
_symmetry_equiv_pos_as_xyz 
  x,y,z 
_cell_length_a                    41.718607193589264 
_cell_length_b                    40.5141824542367 
_cell_length_c                    41.381962037176756 
_cell_angle_alpha                 89.79946704097206 
_cell_angle_beta                  89.92721028358643 
_cell_angle_gamma                 90.18901593343377 
loop_ 
_atom_site_label 
_atom_site_type_symbol 
_atom_site_fract_x 
_atom_site_fract_y 
_atom_site_fract_z 
_atom_site_charge 
C1          C  0.85432349  0.35141288  0.85090792    -0.02070
C2          C  0.35423800  0.85240882  0.85274586    -0.02070
C3          C  0.35336190  0.85621593  0.18328575    -0.02070
C4          C  0.68284985  0.85497333  0.85937256    -0.02070
C5          C  0.35586429  0.18257512  0.85096526    -0.02070
C6          C  0.85150597  0.68545549  0.85610797    -0.02070
C7          C  0.18634119  0.34657004  0.85189434    -0.02070
C8          C  0.85554528  0.35274055  0.18846609    -0.02070
C9          C  0.84816032  0.84530048  0.68752755    -0.02070
C10         C  0.18586572  0.84930148  0.35494181    -0.02070
C11         C  0.85787041  0.68466859  0.18298490    -0.02070
C12         C  0.18782575  0.68779822  0.84800335    -0.02070
C13         C  0.68732261  0.19128721  0.85197561    -0.02070
C14         C  0.68451088  0.84923875  0.19216562    -0.02070
C15         C  0.85534944  0.18162258  0.68011673    -0.02070
C16         C  0.18251873  0.85414263  0.68590045    -0.02070
O17         O  0.48054560  0.81297320  0.26548325    -0.72530
O18         O  0.54734710  0.76026299  0.31247440    -0.73510
O19         O  0.54873090  0.81186747  0.26609460    -0.62130
O20         O  0.47981202  0.76055766  0.31188724    -0.70540
O21         O  0.48002799  0.72488610  0.27133279    -0.70090
O22         O  0.54775169  0.77684341  0.22488320    -0.61350
O23         O  0.54810161  0.72528124  0.27124501    -0.73860
O24         O  0.48019833  0.77726630  0.22498745    -0.72630
Cu25       Cu  0.51394182  0.78776567  0.29032128     1.04560
Cu26       Cu  0.51384381  0.74972856  0.24678147     1.04330
C27         C  0.46998580  0.80382297  0.23790449     0.93670
C28         C  0.55893762  0.73492184  0.29856344     0.92810
C29         C  0.55961372  0.80205444  0.23886511     0.84950
C30         C  0.46937857  0.73412595  0.29882875     0.91220
O31         O  0.48982068  0.77236821  0.81482759    -0.72530
O32         O  0.55691037  0.72741308  0.75886914    -0.73510
O33         O  0.55788113  0.77550771  0.81003128    -0.62130
O34         O  0.48855248  0.72444576  0.76414739    -0.70540
O35         O  0.48520522  0.76386846  0.72704686    -0.70090
O36         O  0.55414038  0.81518632  0.77306748    -0.61350
O37         O  0.55300469  0.76788054  0.72293693    -0.73860
O38         O  0.48608166  0.81170926  0.77755590    -0.72630
Cu39       Cu  0.52349860  0.74852005  0.78828834     1.04560
Cu40       Cu  0.51946553  0.79106593  0.74900583     1.04330
C41         C  0.47696992  0.79892901  0.80433509     0.93670
C42         C  0.56569444  0.74080600  0.73216113     0.92810
C43         C  0.56700179  0.80331665  0.79856552     0.84950
C44         C  0.47593883  0.73599251  0.73831833     0.91220
O45         O  0.76923683  0.22291505  0.55115570    -0.72530
O46         O  0.72351165  0.27684048  0.48327106    -0.73510
O47         O  0.77000507  0.22511172  0.48208947    -0.62130
O48         O  0.72248217  0.27377369  0.55121508    -0.70540
O49         O  0.76082294  0.31167601  0.55285638    -0.70090
O50         O  0.80991211  0.26127210  0.48366118    -0.61350
O51         O  0.76328743  0.31325581  0.48415075    -0.73860
O52         O  0.80840339  0.26003279  0.55254736    -0.72630
Cu53       Cu  0.74508889  0.24832951  0.51684963     1.04560
Cu54       Cu  0.78701800  0.28786203  0.51838710     1.04330
C55         C  0.79585724  0.23316084  0.56282109     0.93670
C56         C  0.73610987  0.30382830  0.47326062     0.92810
C57         C  0.79717006  0.23525749  0.47165172     0.84950
C58         C  0.73365742  0.30062919  0.56272132     0.91220
C59         C  0.68751728  0.19171941  0.18610736    -0.02070
C60         C  0.67953855  0.35390060  0.35551715    -0.02070
O61         O  0.75757022  0.48435715  0.31135242    -0.72530
O62         O  0.81035579  0.55510156  0.26807904    -0.73510
O63         O  0.75634913  0.55397772  0.31141264    -0.62130
O64         O  0.81115475  0.48492775  0.26772009    -0.70540
O65         O  0.77817954  0.48491150  0.22581490    -0.70090
O66         O  0.72407845  0.55344651  0.26895125    -0.61350
O67         O  0.77787272  0.55443664  0.22578414    -0.73860
O68         O  0.72485433  0.48365693  0.26921787    -0.72630
Cu69       Cu  0.78505693  0.51961158  0.29108607     1.04560
Cu70       Cu  0.75010013  0.51911995  0.24604783     1.04330
C71         C  0.73259122  0.47308746  0.29730669     0.93670
C72         C  0.80284805  0.56566558  0.23993968     0.92810
C73         C  0.73119177  0.56435498  0.29699001     0.84950
C74         C  0.80341907  0.47420240  0.23969302     0.91220
C75         C  0.68330143  0.68693668  0.34547341    -0.02070
C76         C  0.77510090  0.76704088  0.26811587    -0.02070
O77         O  0.80876677  0.77157401  0.55079806    -0.72530
O78         O  0.76144943  0.72730952  0.47845527    -0.73510
O79         O  0.81340643  0.77284354  0.48234631    -0.62130
O80         O  0.75720412  0.72606648  0.54730344    -0.70540
O81         O  0.72420411  0.76896124  0.54697394    -0.70090
O82         O  0.77891469  0.81425631  0.47984673    -0.61350
O83         O  0.72624790  0.76810001  0.47735769    -0.73860
O84         O  0.77616211  0.81470556  0.54839152    -0.72630
Cu85       Cu  0.78632948  0.74802805  0.51463199     1.04560
Cu86       Cu  0.75007488  0.79291329  0.51291100     1.04330
C87         C  0.79986716  0.79973460  0.56131330     0.93670
C88         C  0.73633009  0.74046810  0.46639378     0.92810
C89         C  0.80526595  0.80099774  0.47102665     0.84950
C90         C  0.73270781  0.74100411  0.55852476     0.91220
C91         C  0.68661997  0.69232514  0.68435659    -0.02070
C92         C  0.76561394  0.76855800  0.77800996    -0.02070
O93         O  0.81339594  0.48658095  0.77227110    -0.72530
O94         O  0.76372946  0.55715390  0.72539303    -0.73510
O95         O  0.81283906  0.55582589  0.77297031    -0.62130
O96         O  0.76516774  0.48685571  0.72456232    -0.70540
O97         O  0.72710254  0.48594381  0.76204005    -0.70090
O98         O  0.77745706  0.55421800  0.81296263    -0.61350
O99         O  0.72779151  0.55690555  0.76480296    -0.73860
O100        O  0.77624747  0.48443100  0.81050276    -0.72630
Cu101      Cu  0.78990471  0.52169467  0.74747508     1.04560
Cu102      Cu  0.75068650  0.52036965  0.78888747     1.04330
C103        C  0.80285792  0.47440339  0.79879203     0.93670
C104        C  0.73811723  0.56873153  0.73800469     0.92810
C105        C  0.80351440  0.56546439  0.80074750     0.84950
C106        C  0.73906432  0.47490344  0.73568688     0.91220
C107        C  0.68635623  0.35201343  0.68405553    -0.02070
C108        C  0.77423074  0.26806461  0.76396110    -0.02070
O109        O  0.55294888  0.26965374  0.81325583    -0.72530
O110        O  0.48369294  0.31388846  0.76028744    -0.73510
O111        O  0.48449820  0.26549734  0.81103054    -0.62130
O112        O  0.55184378  0.31734865  0.76334696    -0.70540
O113        O  0.55541155  0.27799328  0.72637370    -0.70090
O114        O  0.48812388  0.22584295  0.77446634    -0.61350
O115        O  0.48715467  0.27364477  0.72429970    -0.73860
O116        O  0.55630864  0.22958148  0.77704201    -0.72630
Cu117      Cu  0.51806755  0.29296075  0.78824243     1.04560
Cu118      Cu  0.52186551  0.25039588  0.74927725     1.04330
C119        C  0.56586388  0.24294151  0.80329906     0.93670
C120        C  0.47430095  0.30047124  0.73398634     0.92810
C121        C  0.47543802  0.23749103  0.80014247     0.84950
C122        C  0.56465817  0.30572351  0.73776706     0.91220
C123        C  0.18318210  0.18752210  0.68779629    -0.02070
C124        C  0.35387277  0.35322915  0.68254150    -0.02070
O125        O  0.26533032  0.48230801  0.81126675    -0.72530
O126        O  0.31061947  0.55582396  0.76231927    -0.73510
O127        O  0.26315959  0.55232398  0.81178117    -0.62130
O128        O  0.31373422  0.48599678  0.76299091    -0.70540
O129        O  0.27689222  0.48474255  0.72453870    -0.70090
O130        O  0.22378559  0.55106540  0.77593614    -0.61350
O131        O  0.27127278  0.55541540  0.72628463    -0.73860
O132        O  0.22773880  0.48079399  0.77355620    -0.72630
Cu133      Cu  0.28944500  0.51914097  0.78834511     1.04560
Cu134      Cu  0.24860456  0.51787144  0.74868187     1.04330
C135        C  0.23930198  0.46994492  0.80009407     0.93670
C136        C  0.29758071  0.56749831  0.73675031     0.92810
C137        C  0.23589412  0.56252320  0.80205453     0.84950
C138        C  0.30371152  0.47472547  0.73612603     0.91220
C139        C  0.35464855  0.68982588  0.68651231    -0.02070
C140        C  0.26976830  0.77410003  0.76767831    -0.02070
O141        O  0.30717046  0.76590239  0.48265305    -0.72530
O142        O  0.25961131  0.81024444  0.55380773    -0.73510
O143        O  0.31137764  0.76543540  0.55130044    -0.62130
O144        O  0.25467987  0.81070352  0.48579384    -0.70540
O145        O  0.22150707  0.76788768  0.48730744    -0.70090
O146        O  0.27709283  0.72369314  0.55417356    -0.61350
O147        O  0.22452752  0.76912849  0.55630468    -0.73860
O148        O  0.27442140  0.72284137  0.48514966    -0.72630
Cu149      Cu  0.28434395  0.78943882  0.51827119     1.04560
Cu150      Cu  0.24815207  0.74437684  0.52078261     1.04330
C151        C  0.29869889  0.73745208  0.47252560     0.93670
C152        C  0.23483501  0.79700479  0.56655182     0.92810
C153        C  0.30297048  0.73768228  0.56356268     0.84950
C154        C  0.22915719  0.79628601  0.47606168     0.91220
C155        C  0.18477372  0.68893187  0.18909806    -0.02070
C156        C  0.35141317  0.68285534  0.35219741    -0.02070
C157        C  0.35412228  0.35135724  0.35310879    -0.02070
O158        O  0.26467369  0.55410823  0.22621837    -0.72530
O159        O  0.31164524  0.48199732  0.27053589    -0.73510
O160        O  0.26297240  0.48345697  0.22237043    -0.62130
O161        O  0.31165018  0.55144769  0.27591544    -0.70540
O162        O  0.27219168  0.55004789  0.31187957    -0.70090
O163        O  0.22687928  0.48132871  0.26156741    -0.61350
O164        O  0.27558266  0.48057121  0.30994710    -0.73860
O165        O  0.22531836  0.55153350  0.26224675    -0.72630
Cu166      Cu  0.28900128  0.51783007  0.24736384     1.04560
Cu167      Cu  0.24862325  0.51573943  0.28763219     1.04330
C168        C  0.23800601  0.56467021  0.23705786     0.93670
C169        C  0.30174326  0.47020780  0.29732816     0.92810
C170        C  0.23726367  0.47104130  0.23445036     0.84950
C171        C  0.29910218  0.56144425  0.30242790     0.91220
C172        C  0.27232269  0.77260394  0.27010996    -0.02070
O173        O  0.05528529  0.81367470  0.27566379    -0.72530
O174        O  0.98678783  0.76863320  0.22413189    -0.73510
O175        O  0.98770737  0.81804409  0.27249356    -0.62130
O176        O  0.05447461  0.76372565  0.22712826    -0.70540
O177        O  0.05027830  0.72568093  0.26559415    -0.70090
O178        O  0.98324596  0.77943128  0.31039702    -0.61350
O179        O  0.98266840  0.72936625  0.26146042    -0.73860
O180        O  0.05071303  0.77502365  0.31365736    -0.72630
Cu181      Cu  0.02115475  0.79237603  0.24853813     1.04560
Cu182      Cu  0.01645504  0.75104609  0.28911017     1.04330
C183        C  0.06405705  0.80111936  0.30255325     0.93670
C184        C  0.97403089  0.74190513  0.23446307     0.92810
C185        C  0.97513846  0.80743152  0.29874405     0.84950
C186        C  0.06324171  0.73625463  0.23954218     0.91220
O187        O  0.27386234  0.81128793  0.98439378    -0.72530
O188        O  0.22352098  0.76542449  0.05418233    -0.73510
O189        O  0.27503015  0.81192553  0.05338149    -0.62130
O190        O  0.22262548  0.76445613  0.98528828    -0.70540
O191        O  0.25901721  0.72458797  0.98480761    -0.70090
O192        O  0.30920472  0.77019167  0.05405235    -0.61350
O193        O  0.25774760  0.72374795  0.05368987    -0.73860
O194        O  0.31024790  0.77162828  0.98488376    -0.72630
Cu195      Cu  0.24752677  0.78964675  0.01936420     1.04560
Cu196      Cu  0.28523266  0.74608298  0.01940588     1.04330
C197        C  0.29987834  0.79900044  0.97340321     0.93670
C198        C  0.23252095  0.73740539  0.06508573     0.92810
C199        C  0.30023008  0.79820757  0.06477081     0.84950
C200        C  0.23332417  0.73739794  0.97376257     0.91220
C201        C  0.27218585  0.26584525  0.76971466    -0.02070
O202        O  0.27601319  0.04946729  0.81537295    -0.72530
O203        O  0.22689263  0.98199992  0.76548838    -0.73510
O204        O  0.27972610  0.98039903  0.81164695    -0.62130
O205        O  0.22583807  0.05200988  0.76847161    -0.70540
O206        O  0.26196962  0.05525121  0.72936096    -0.70090
O207        O  0.31436374  0.98328553  0.77117356    -0.61350
O208        O  0.26144572  0.98525952  0.72500133    -0.73860
O209        O  0.31287844  0.05291288  0.77693474    -0.72630
Cu210      Cu  0.25090502  0.01569665  0.79152577     1.04560
Cu211      Cu  0.28889031  0.01920011  0.74918805     1.04330
C212        C  0.30218179  0.06161984  0.80470810     0.93670
C213        C  0.23530679  0.97366858  0.73699853     0.92810
C214        C  0.30634985  0.97157621  0.79873098     0.84950
C215        C  0.23566459  0.06500080  0.74191550     0.91220
O216        O  0.05119019  0.31241805  0.77820410    -0.72530
O217        O  0.98239337  0.26751895  0.72584961    -0.73510
O218        O  0.98344200  0.31285191  0.77881886    -0.62130
O219        O  0.05071499  0.26666332  0.72603339    -0.70540
O220        O  0.04972888  0.22394077  0.75962643    -0.70090
O221        O  0.98300849  0.27052621  0.81288464    -0.61350
O222        O  0.98175898  0.22501506  0.75966383    -0.73860
O223        O  0.05140769  0.26956003  0.81179249    -0.72630
Cu224      Cu  0.01682517  0.29128223  0.75102822     1.04560
Cu225      Cu  0.01632035  0.24586073  0.78727847     1.04330
C226        C  0.06266469  0.29757930  0.80282881     0.93670
C227        C  0.97143409  0.23916852  0.73403168     0.92810
C228        C  0.97294881  0.29911994  0.80461056     0.84950
C229        C  0.06112223  0.23822392  0.73454418     0.91220
O230        O  0.25835808  0.22448321  0.48537542    -0.72530
O231        O  0.30924397  0.27471056  0.55298511    -0.73510
O232        O  0.25993670  0.22476300  0.55353637    -0.62130
O233        O  0.30834728  0.27397584  0.48386873    -0.70540
O234        O  0.27123292  0.31297154  0.48458666    -0.70090
O235        O  0.22315746  0.26432087  0.55347022    -0.61350
O236        O  0.27151202  0.31314484  0.55291002    -0.73860
O237        O  0.22235542  0.26463269  0.48621571    -0.72630
Cu238      Cu  0.28539924  0.24804871  0.51884283     1.04560
Cu239      Cu  0.24591315  0.29006343  0.51921771     1.04330
C240        C  0.23181307  0.23678390  0.47568702     0.93670
C241        C  0.29774287  0.30171528  0.56403244     0.92810
C242        C  0.23391568  0.23702219  0.56438753     0.84950
C243        C  0.29727400  0.30129086  0.47312432     0.91220
C244        C  0.76755886  0.27398951  0.27235048    -0.02070
O245        O  0.71959583  0.98719075  0.26697344    -0.72530
O246        O  0.77533129  0.05455663  0.31119087    -0.73510
O247        O  0.72468045  0.05679055  0.26444732    -0.62130
O248        O  0.76941465  0.98480652  0.31329033    -0.70540
O249        O  0.80623609  0.98172563  0.27462870    -0.70090
O250        O  0.76029460  0.05244738  0.22472368    -0.61350
O251        O  0.81066751  0.05157536  0.27128439    -0.73860
O252        O  0.75544218  0.98272487  0.22762830    -0.72630
Cu253      Cu  0.74599293  0.02099423  0.29029033     1.04560
Cu254      Cu  0.78437966  0.01691705  0.24813350     1.04330
C255        C  0.72878537  0.97409504  0.24050462     0.93670
C256        C  0.80185898  0.06372290  0.29837152     0.92810
C257        C  0.73553372  0.06599253  0.23698980     0.84950
C258        C  0.79497897  0.97212195  0.30183798     0.91220
O259        O  0.72912846  0.26245424  0.05459918    -0.72530
O260        O  0.77287832  0.31506377  0.98464218    -0.73510
O261        O  0.72786284  0.26261537  0.98596321    -0.62130
O262        O  0.77505961  0.31546480  0.05425266    -0.70540
O263        O  0.81421933  0.27849864  0.05361762    -0.70090
O264        O  0.76851983  0.22758033  0.98440457    -0.61350
O265        O  0.81370227  0.27999257  0.98480994    -0.73860
O266        O  0.76880766  0.22620208  0.05331072    -0.72630
Cu267      Cu  0.74992324  0.29029454  0.01995190     1.04560
Cu268      Cu  0.79270382  0.25188935  0.01902720     1.04330
C269        C  0.74197864  0.23582329  0.06488108     0.93670
C270        C  0.79964610  0.30531892  0.97314154     0.92810
C271        C  0.74119677  0.23702391  0.97397900     0.84950
C272        C  0.80171077  0.30461672  0.06524939     0.91220
O273        O  0.48377249  0.26673514  0.31340685    -0.72530
O274        O  0.55236034  0.22296155  0.26000625    -0.73510
O275        O  0.55220167  0.26692111  0.31360360    -0.62130
O276        O  0.48363610  0.22301722  0.25985199    -0.70540
O277        O  0.48354509  0.26664784  0.22722982    -0.70090
O278        O  0.55235227  0.31008486  0.28051732    -0.61350
O279        O  0.55280877  0.26596648  0.22683423    -0.73860
O280        O  0.48462851  0.31019587  0.28071523    -0.72630
Cu281      Cu  0.51805609  0.24337910  0.28780047     1.04560
Cu282      Cu  0.51842045  0.28958295  0.25251643     1.04330
C283        C  0.47325811  0.29526116  0.30549064     0.93670
C284        C  0.56393510  0.23779033  0.23527212     0.92810
C285        C  0.56294411  0.29545858  0.30570742     0.84950
C286        C  0.47186253  0.23875054  0.23585697     0.91220
C287        C  0.18449854  0.34774792  0.18318682    -0.02070
C288        C  0.34685393  0.19222848  0.18799181    -0.02070
C289        C  0.18241328  0.18444516  0.35853701    -0.02070
C290        C  0.26341689  0.26943554  0.27539434    -0.02070
O291        O  0.05519739  0.25927121  0.30713879    -0.72530
O292        O  0.98803030  0.30927803  0.25549980    -0.73510
O293        O  0.98684378  0.26313828  0.30771556    -0.62130
O294        O  0.05586220  0.30658140  0.25460474    -0.70540
O295        O  0.05316689  0.26632722  0.21864837    -0.70090
O296        O  0.98545674  0.22061653  0.27420138    -0.61350
O297        O  0.98499322  0.26697549  0.22185767    -0.73860
O298        O  0.05404046  0.21932177  0.27067329    -0.72630
Cu299      Cu  0.02167456  0.28591935  0.28251945     1.04560
Cu300      Cu  0.01940342  0.24185252  0.24518608     1.04330
C301        C  0.06534378  0.23142787  0.29676142     0.93670
C302        C  0.97562715  0.29558587  0.23061714     0.92810
C303        C  0.97481015  0.23542645  0.29930346     0.84950
C304        C  0.06480639  0.29408374  0.22774862     0.91220
O305        O  0.26882513  0.98675441  0.22198073    -0.72530
O306        O  0.22412702  0.05411809  0.27644594    -0.73510
O307        O  0.27028288  0.05675334  0.22539626    -0.62130
O308        O  0.22337104  0.98406562  0.27387308    -0.70540
O309        O  0.26373852  0.98216802  0.30849375    -0.70090
O310        O  0.30991649  0.05454324  0.26085772    -0.61350
O311        O  0.26411722  0.05231602  0.31163173    -0.73860
O312        O  0.30929726  0.98514356  0.25663863    -0.72630
Cu313      Cu  0.24527341  0.02047765  0.24816590     1.04560
Cu314      Cu  0.28807391  0.01840240  0.28566502     1.04330
C315        C  0.29616336  0.97554393  0.23038192     0.93670
C316        C  0.23712130  0.06406212  0.30258180     0.92810
C317        C  0.29754371  0.06713232  0.23549349     0.84950
C318        C  0.23632877  0.97167351  0.29916598     0.91220
O319        O  0.28329744  0.22621627  0.05209554    -0.72530
O320        O  0.22688260  0.26740895  0.98418702    -0.73510
O321        O  0.28040939  0.22421843  0.98376230    -0.62130
O322        O  0.22981755  0.26940198  0.05252791    -0.70540
O323        O  0.26167427  0.31337005  0.04901922    -0.70090
O324        O  0.31405986  0.26677962  0.98139452    -0.61350
O325        O  0.25971658  0.31044153  0.98087924    -0.73860
O326        O  0.31506672  0.27024370  0.05047455    -0.72630
Cu327      Cu  0.25399509  0.24531674  0.01818000     1.04560
Cu328      Cu  0.28886209  0.29168189  0.01524008     1.04330
C329        C  0.30760389  0.24216045  0.06261648     0.93670
C330        C  0.23420267  0.29546170  0.97193145     0.92810
C331        C  0.30504392  0.23833612  0.97162246     0.84950
C332        C  0.23795600  0.29824394  0.06182866     0.91220
O333        O  0.98455819  0.72340034  0.77715302    -0.72530
O334        O  0.04986516  0.77419470  0.72432284    -0.73510
O335        O  0.05284244  0.72678564  0.77477799    -0.62130
O336        O  0.98204584  0.76999491  0.72569652    -0.70540
O337        O  0.98046654  0.81101657  0.76090856    -0.70090
O338        O  0.05255351  0.76627360  0.81164176    -0.61350
O339        O  0.04871091  0.81415920  0.76091423    -0.73860
O340        O  0.98378286  0.76385149  0.81319558    -0.72630
Cu341      Cu  0.01732567  0.74721088  0.74933735     1.04560
Cu342      Cu  0.01627718  0.79025070  0.78798012     1.04330
C343        C  0.97348093  0.73602799  0.80317017     0.93670
C344        C  0.05998126  0.80194061  0.73491709     0.92810
C345        C  0.06449757  0.73951937  0.80041011     0.84950
C346        C  0.97003397  0.79724644  0.73507271     0.91220
O347        O  0.81369147  0.05170076  0.76398132    -0.72530
O348        O  0.76196595  0.98729728  0.81441272    -0.73510
O349        O  0.81028787  0.98186859  0.76648871    -0.62130
O350        O  0.76371512  0.05686031  0.81110318    -0.70540
O351        O  0.72787356  0.05624358  0.77168246    -0.70090
O352        O  0.77344099  0.98159490  0.72799897    -0.61350
O353        O  0.72446592  0.98594973  0.77664866    -0.73860
O354        O  0.77812984  0.05151344  0.72430160    -0.72630
Cu355      Cu  0.78865014  0.01948565  0.79025416     1.04560
Cu356      Cu  0.74964455  0.01886579  0.74878751     1.04330
C357        C  0.80465628  0.06184411  0.73627433     0.93670
C358        C  0.73539068  0.97606306  0.80397616     0.92810
C359        C  0.79909298  0.96985716  0.74017610     0.84950
C360        C  0.73806612  0.06822377  0.79828438     0.91220
O361        O  0.72225287  0.77326130  0.98904270    -0.72530
O362        O  0.77205301  0.72315427  0.05526221    -0.73510
O363        O  0.72337728  0.77208565  0.05770711    -0.62130
O364        O  0.77172152  0.72499857  0.98697777    -0.70540
O365        O  0.80884443  0.76420939  0.98640192    -0.70090
O366        O  0.76135842  0.81040299  0.05803686    -0.61350
O367        O  0.81037532  0.76117566  0.05489540    -0.73860
O368        O  0.75868457  0.81314574  0.98890679    -0.72630
Cu369      Cu  0.74611751  0.74708307  0.02218000     1.04560
Cu370      Cu  0.78608446  0.78870276  0.02201756     1.04330
C371        C  0.73216927  0.80113524  0.97851615     0.93670
C372        C  0.79893186  0.73387704  0.06560236     0.92810
C373        C  0.73516593  0.79864417  0.06945553     0.84950
C374        C  0.79800059  0.73681713  0.97573243     0.91220
C375        C  0.85240846  0.18565947  0.35155946    -0.02070
C376        C  0.85593530  0.85353197  0.35189962    -0.02070
C377        C  0.89618333  0.23152479  0.34456442    -0.20890
C378        C  0.88813788  0.19751623  0.34490975    -0.08930
C379        C  0.91381865  0.17583364  0.33676498     0.29920
C380        C  0.94199725  0.18787961  0.32187008    -0.20890
C381        C  0.94701984  0.22189281  0.31772042    -0.08950
C382        C  0.92456028  0.24350741  0.33105007     0.29930
F383        F  0.92903602  0.27670225  0.32952671    -0.19470
H384        H  0.88092444  0.24994532  0.35428131     0.18300
H385        H  0.96003190  0.17057375  0.31382707     0.18300
F386        F  0.91220387  0.14299412  0.34308669    -0.19460
C387        C  0.17570390  0.12459517  0.33510756    -0.20890
C388        C  0.19539334  0.14849456  0.35065459    -0.08930
C389        C  0.22757331  0.13812209  0.35651966     0.29920
C390        C  0.24032707  0.11023056  0.34171120    -0.20890
C391        C  0.22165355  0.09045777  0.32166177    -0.08950
C392        C  0.18871555  0.09690597  0.31973002     0.29930
F393        F  0.16899641  0.07664495  0.30279729    -0.19470
H394        H  0.15006124  0.12754801  0.33331832     0.18300
H395        H  0.26537531  0.10447810  0.34563238     0.18300
F396        F  0.24694055  0.15254651  0.37828075    -0.19460
C397        C  0.11556282  0.19874002  0.29542203    -0.20890
C398        C  0.09150070  0.21366500  0.31378006    -0.08930
C399        C  0.09370555  0.21230180  0.34767907     0.29920
C400        C  0.12084357  0.19849014  0.36268975    -0.20890
C401        C  0.14761230  0.18833066  0.34419457    -0.08950
C402        C  0.14319989  0.18647377  0.31008218     0.29930
F403        F  0.16745726  0.17663407  0.29044628    -0.19470
H404        H  0.11417797  0.19887656  0.26927672     0.18300
H405        H  0.12159958  0.19821704  0.38879327     0.18300
F406        F  0.06992028  0.22485752  0.36630119    -0.19460
C407        C  0.25641105  0.23427094  0.32746062    -0.20890
C408        C  0.24255034  0.25321960  0.30266267    -0.08930
C409        C  0.20969464  0.26020637  0.30796664     0.29920
C410        C  0.19069857  0.23785641  0.32446344    -0.20890
C411        C  0.20422078  0.21110321  0.34165430    -0.08950
C412        C  0.23733781  0.21524602  0.34818648     0.29930
F413        F  0.24950723  0.20920802  0.37788162    -0.19470
H414        H  0.28101520  0.23815008  0.33423423     0.18300
H415        H  0.16546516  0.24359688  0.32546159     0.18300
F416        F  0.19593823  0.28947603  0.30010793    -0.19460
C417        C  0.34169194  0.18372891  0.12562246    -0.20890
C418        C  0.34408942  0.20505400  0.15250343    -0.08930
C419        C  0.34257468  0.23951748  0.14603321     0.29920
C420        C  0.33328711  0.25127342  0.11573210    -0.20890
C421        C  0.32537708  0.22941404  0.09093210    -0.08950
C422        C  0.33109892  0.19556506  0.09552643     0.29930
F423        F  0.32560071  0.17387006  0.07122927    -0.19470
H424        H  0.34583428  0.15752485  0.12822516     0.18300
H425        H  0.32955058  0.27754960  0.11260275     0.18300
F426        F  0.34595270  0.26209224  0.16984430    -0.19460
C427        C  0.29881025  0.11120263  0.19322062    -0.20890
C428        C  0.31426921  0.09469454  0.21846687    -0.08930
C429        C  0.34427129  0.10669421  0.22881569     0.29920
C430        C  0.35700911  0.13596278  0.21587807    -0.20890
C431        C  0.34026380  0.15453289  0.19232118    -0.08950
C432        C  0.31103441  0.14070548  0.18073252     0.29930
F433        F  0.29203321  0.15725652  0.15971952    -0.19470
H434        H  0.27576109  0.10261796  0.18457062     0.18300
H435        H  0.37849302  0.14546762  0.22705430     0.18300
F436        F  0.36048233  0.09151477  0.25306378    -0.19460
C437        C  0.32370553  0.20349275  0.24401175    -0.20890
C438        C  0.32049623  0.20685478  0.21025560    -0.08930
C439        C  0.29245462  0.22219348  0.19902373     0.29920
C440        C  0.27319944  0.23983777  0.22012851    -0.20890
C441        C  0.27999550  0.24241191  0.25374836    -0.08950
C442        C  0.30447170  0.22113829  0.26536806     0.29930
F443        F  0.31404569  0.22079948  0.29648200    -0.19470
H444        H  0.34358621  0.18974294  0.25401180     0.18300
H445        H  0.25379752  0.25246678  0.20847081     0.18300
F446        F  0.28302925  0.22059218  0.16771208    -0.19460
C447        C  0.10703566  0.29488106  0.18409128    -0.20890
C448        C  0.08949898  0.31159379  0.20787094    -0.08930
C449        C  0.09733273  0.34480965  0.21372749     0.29920
C450        C  0.12509607  0.35878622  0.20034590    -0.20890
C451        C  0.14756278  0.33922260  0.18347549    -0.08950
C452        C  0.13562259  0.30845372  0.17167674     0.29930
F453        F  0.15371958  0.28866487  0.15267317    -0.19470
H454        H  0.10058187  0.26987638  0.17752821     0.18300
H455        H  0.12926210  0.38453004  0.20514467     0.18300
F456        F  0.07887258  0.36360374  0.23341694    -0.19460
C457        C  0.22170624  0.30998682  0.14904380    -0.20890
C458        C  0.19886955  0.33600318  0.15031148    -0.08930
C459        C  0.18741229  0.34820633  0.12032161     0.29920
C460        C  0.20019336  0.33659005  0.09094943    -0.20890
C461        C  0.22334300  0.31153299  0.09107718    -0.08950
C462        C  0.23351176  0.29811663  0.12019800     0.29930
F463        F  0.25518521  0.27313509  0.12078456    -0.19470
H464        H  0.23050460  0.29720616  0.17006523     0.18300
H465        H  0.19182479  0.34679528  0.06827213     0.18300
F466        F  0.16439728  0.37179375  0.11956416    -0.19460
C467        C  0.23468586  0.33837012  0.21731575    -0.20890
C468        C  0.20254377  0.32884807  0.21063664    -0.08930
C469        C  0.19176130  0.29911481  0.22502771     0.29920
C470        C  0.21290168  0.27922592  0.24172573    -0.20890
C471        C  0.24265285  0.29125182  0.25275533    -0.08950
C472        C  0.25406881  0.32064814  0.23833120     0.29930
F473        F  0.28479493  0.33109062  0.24174804    -0.19470
H474        H  0.24564028  0.35916601  0.20509110     0.18300
H475        H  0.20490167  0.25457218  0.24800221     0.18300
F476        F  0.16125150  0.28824925  0.22419503    -0.19460
C477        C  0.38415201  0.23358492  0.21765611    -0.20890
C478        C  0.38071047  0.20403717  0.19965403    -0.08930
C479        C  0.40937198  0.18779743  0.19049007     0.29920
C480        C  0.43938200  0.19858492  0.20224228    -0.20890
C481        C  0.44164482  0.22722088  0.22115870    -0.08950
C482        C  0.41386583  0.24500741  0.22791417     0.29930
F483        F  0.41533773  0.27326246  0.24544885    -0.19470
H484        H  0.36381497  0.24868441  0.22391349     0.18300
H485        H  0.46080071  0.18483201  0.19632537     0.18300
F486        F  0.40829845  0.16095946  0.17099379    -0.19460
C487        C  0.79190976  0.91909521  0.33128581    -0.20890
C488        C  0.81065308  0.94508108  0.31955757    -0.08930
C489        C  0.84392000  0.94433037  0.32441574     0.29920
C490        C  0.85825715  0.91658260  0.33863212    -0.20890
C491        C  0.84015508  0.88775225  0.34510133    -0.08950
C492        C  0.80622021  0.89092559  0.34406783     0.29930
F493        F  0.78648824  0.86662382  0.35472868    -0.19470
H494        H  0.76603335  0.91989888  0.32914416     0.18300
H495        H  0.88386483  0.91712218  0.34264110     0.18300
F496        F  0.86253202  0.97025471  0.31521988    -0.19460
C497        C  0.83280726  0.12465399  0.36079982    -0.20890
C498        C  0.84800495  0.14855397  0.34090849    -0.08930
C499        C  0.85548156  0.13845907  0.30877359     0.29920
C500        C  0.84228279  0.10953477  0.29583601    -0.20890
C501        C  0.82173455  0.08956530  0.31431949    -0.08950
C502        C  0.81881387  0.09625123  0.34750667     0.29930
F503        F  0.80145818  0.07594937  0.36701742    -0.19470
H504        H  0.82952130  0.12854034  0.38637342     0.18300
H505        H  0.84583901  0.10448564  0.27039914     0.18300
F506        F  0.87076434  0.15927232  0.28803047    -0.19460
C507        C  0.80467624  0.26174178  0.31967237    -0.20890
C508        C  0.78716279  0.24931243  0.29323186    -0.08930
C509        C  0.79097827  0.21553579  0.28605214     0.29920
C510        C  0.80995644  0.19544771  0.30533848    -0.20890
C511        C  0.82886074  0.20792566  0.33103540    -0.08950
C512        C  0.82266059  0.24132183  0.33952243     0.29930
F513        F  0.83081633  0.25407095  0.36867004    -0.19470
H514        H  0.80305578  0.28763004  0.32595137     0.18300
H515        H  0.80835653  0.16982105  0.29937332     0.18300
F516        F  0.77859966  0.20147553  0.25921523    -0.19460
C517        C  0.19203124  0.23951883  0.43184048    -0.20890
C518        C  0.21209848  0.22012117  0.45104723    -0.08930
C519        C  0.21330636  0.18595575  0.44542585     0.29920
C520        C  0.19788312  0.17253455  0.41829996    -0.20890
C521        C  0.18393689  0.19351196  0.39491133    -0.08950
C522        C  0.17800081  0.22662085  0.40429168     0.29930
F523        F  0.16184089  0.24798082  0.38506996    -0.19470
H524        H  0.18922252  0.26564720  0.43652183     0.18300
H525        H  0.19976287  0.14627365  0.41429198     0.18300
F526        F  0.23029310  0.16583953  0.46527374    -0.19460
C527        C  0.91636185  0.83821971  0.36147618    -0.20890
C528        C  0.89254341  0.85258906  0.34149861    -0.08930
C529        C  0.90354632  0.86233617  0.31015488     0.29920
C530        C  0.93128684  0.84876256  0.29693427    -0.20890
C531        C  0.95005418  0.82701475  0.31494666    -0.08950
C532        C  0.94381506  0.82386767  0.34810747     0.29930
F533        F  0.96380112  0.80638949  0.36750778    -0.19470
H534        H  0.91333418  0.83581285  0.38724406     0.18300
H535        H  0.93723044  0.85423963  0.27198787     0.18300
F536        F  0.88812094  0.88490315  0.29160117    -0.19460
C537        C  0.22602867  0.43466627  0.18623842    -0.20890
C538        C  0.21972597  0.44355384  0.21833791    -0.08930
C539        C  0.19794266  0.42420453  0.23613982     0.29920
C540        C  0.18474159  0.39574529  0.22295147    -0.20890
C541        C  0.19172320  0.38508785  0.19111124    -0.08950
C542        C  0.21240676  0.40607565  0.17260353     0.29930
F543        F  0.22286818  0.39796225  0.14273775    -0.19470
H544        H  0.24280845  0.44908844  0.17198429     0.18300
H545        H  0.17130369  0.37996511  0.23927651     0.18300
F546        F  0.19131029  0.43090281  0.26757229    -0.19460
C547        C  0.39575253  0.30494744  0.35182933    -0.20890
C548        C  0.38932283  0.33915780  0.34821932    -0.08930
C549        C  0.41482651  0.35930714  0.33670970     0.29920
C550        C  0.44263083  0.34493177  0.32394645    -0.20890
C551        C  0.44677540  0.31054587  0.32409782    -0.08950
C552        C  0.42391850  0.29085850  0.34001622     0.29930
F553        F  0.42716880  0.25756143  0.34145063    -0.19470
H554        H  0.37740006  0.28855653  0.36127043     0.18300
H555        H  0.46072837  0.36077267  0.31320455     0.18300
F556        F  0.41306891  0.39272364  0.33673794    -0.19460
C557        C  0.31183326  0.35485187  0.39963216    -0.20890
C558        C  0.34300163  0.34560694  0.38941779    -0.08930
C559        C  0.36151016  0.32885568  0.41333473     0.29920
C560        C  0.34669355  0.31440923  0.44047643    -0.20890
C561        C  0.31394001  0.31904673  0.44652235    -0.08950
C562        C  0.29724881  0.34129388  0.42689962     0.29930
F563        F  0.26628496  0.34928431  0.43320411    -0.19470
H564        H  0.29816161  0.37330473  0.38716240     0.18300
H565        H  0.36101447  0.29987884  0.45702977     0.18300
F566        F  0.39393395  0.32734369  0.41193810    -0.19460
C567        C  0.32341134  0.44116524  0.34645167    -0.20890
C568        C  0.32054146  0.44365615  0.31274132    -0.08930
C569        C  0.33647338  0.42058855  0.29335738     0.29920
C570        C  0.35105452  0.39327732  0.30735944    -0.20890
C571        C  0.34951543  0.38749854  0.34105801    -0.08950
C572        C  0.33914377  0.41410129  0.36056455     0.29930
F573        F  0.34370648  0.41411045  0.39301209    -0.19470
H574        H  0.31349449  0.46016275  0.36182429     0.18300
H575        H  0.36116594  0.37498665  0.29138206     0.18300
F576        F  0.33585574  0.42292162  0.26061758    -0.19460
C577        C  0.29802785  0.33592702  0.33101994    -0.20890
C578        C  0.33141523  0.33061121  0.33035103    -0.08930
C579        C  0.34229082  0.31055176  0.30425223     0.29920
C580        C  0.32093410  0.29128619  0.28651544    -0.20890
C581        C  0.28781330  0.29179692  0.29289451    -0.08950
C582        C  0.27672806  0.31634420  0.31402630     0.29930
F583        F  0.24508701  0.32305790  0.31700366    -0.19470
H584        H  0.28761331  0.35678471  0.34262839     0.18300
H585        H  0.33063522  0.27765255  0.26643509     0.18300
F586        F  0.37259756  0.31230693  0.29246613    -0.19460
C587        C  0.36049322  0.62122235  0.33628991    -0.20890
C588        C  0.34014284  0.64639064  0.34805802    -0.08930
C589        C  0.30715181  0.63836403  0.35196517     0.29920
C590        C  0.29471972  0.60924820  0.33923493    -0.20890
C591        C  0.31436227  0.58766601  0.32180556    -0.08950
C592        C  0.34762555  0.59284438  0.32194497     0.29930
F593        F  0.36758365  0.57109958  0.30734255    -0.19470
H594        H  0.38620662  0.62440883  0.33550158     0.18300
H595        H  0.26903999  0.60531633  0.34030438     0.18300
F596        F  0.28609446  0.66081214  0.36379610    -0.19460
C597        C  0.29390341  0.71425724  0.28382814    -0.20890
C598        C  0.29461944  0.74856922  0.28861476    -0.08930
C599        C  0.31929554  0.76088765  0.30848160     0.29920
C600        C  0.33823706  0.73954863  0.32645589    -0.20890
C601        C  0.33204323  0.70526946  0.32796078    -0.08950
C602        C  0.31196661  0.69302701  0.30276159     0.29930
F603        F  0.31228721  0.66123594  0.29271555    -0.19470
H604        H  0.28061120  0.70316272  0.26431477     0.18300
H605        H  0.35904182  0.75032789  0.33730607     0.18300
F606        F  0.32506871  0.79379505  0.31083520    -0.19460
C607        C  0.24360326  0.61843783  0.20901995    -0.20890
C608        C  0.22336966  0.59368381  0.22115219    -0.08930
C609        C  0.19009066  0.59762886  0.21830714     0.29920
C610        C  0.17742143  0.62683394  0.20522129    -0.20890
C611        C  0.19762604  0.65356030  0.19639641    -0.08950
C612        C  0.23117316  0.64780445  0.19682297     0.29930
F613        F  0.25227082  0.67117099  0.18652096    -0.19470
H614        H  0.26940143  0.61567822  0.21024453     0.18300
H615        H  0.15167370  0.62863501  0.20305356     0.18300
F616        F  0.16984213  0.57326034  0.22803770    -0.19460
C617        C  0.20594669  0.67680532  0.13054386    -0.20890
C618        C  0.18978688  0.69796534  0.15235393    -0.08930
C619        C  0.18188674  0.72999387  0.14048191     0.29920
C620        C  0.19399407  0.74149198  0.11103002    -0.20890
C621        C  0.21443194  0.72193878  0.09227104    -0.08950
C622        C  0.21896249  0.68885317  0.10148438     0.29930
F623        F  0.23694123  0.66834286  0.08304817    -0.19470
H624        H  0.21063482  0.65130836  0.13648638     0.18300
H625        H  0.18946855  0.76692495  0.10435281     0.18300
F626        F  0.16665962  0.75218176  0.15961315    -0.19460
C627        C  0.09561399  0.71837243  0.19145256    -0.20890
C628        C  0.08981518  0.71748164  0.22480754    -0.08930
C629        C  0.11031400  0.69876970  0.24422781     0.29920
C630        C  0.13859182  0.68621189  0.23142504    -0.20890
C631        C  0.14836591  0.69273308  0.19925854    -0.08950
C632        C  0.12347471  0.70414213  0.17850245     0.29930
F633        F  0.12503393  0.70100575  0.14593422    -0.19470
H634        H  0.07840548  0.72976701  0.17535945     0.18300
H635        H  0.15193894  0.67044266  0.24707755     0.18300
F636        F  0.10395102  0.69372014  0.27605753    -0.19460
C637        C  0.22556516  0.73800699  0.19666104    -0.20890
C638        C  0.20575198  0.71310058  0.21052700    -0.08930
C639        C  0.20922506  0.70886017  0.24451468     0.29920
C640        C  0.22732795  0.73072577  0.26300207    -0.20890
C641        C  0.24791086  0.75397020  0.24849633    -0.08950
C642        C  0.24490964  0.75867994  0.21488495     0.29930
F643        F  0.25979013  0.78358585  0.19875204    -0.19470
H644        H  0.22879849  0.74122784  0.17116499     0.18300
H645        H  0.22862720  0.72652524  0.28884883     0.18300
F646        F  0.20087229  0.68057356  0.25973689    -0.19460
C647        C  0.31584650  0.68797716  0.44000823    -0.20890
C648        C  0.31678332  0.72209489  0.44545434    -0.08930
C649        C  0.33608225  0.74144054  0.42504756     0.29920
C650        C  0.35032343  0.72770239  0.39773427    -0.20890
C651        C  0.34473536  0.69459528  0.38826526    -0.08950
C652        C  0.33103225  0.67411742  0.41289313     0.29930
F653        F  0.33269166  0.64071554  0.41180087    -0.19470
H654        H  0.30368781  0.67185721  0.45702163     0.18300
H655        H  0.36640676  0.74362426  0.38484865     0.18300
F656        F  0.34073622  0.77408302  0.43079494    -0.19460
C657        C  0.35814811  0.72839097  0.63578340    -0.20890
C658        C  0.34828824  0.69771805  0.64941040    -0.08930
C659        C  0.32927829  0.67735174  0.62876453     0.29920
C660        C  0.31589039  0.69001715  0.60022377    -0.20890
C661        C  0.32227262  0.72238051  0.58993080    -0.08950
C662        C  0.34532542  0.74062714  0.60692741     0.29930
F663        F  0.35329228  0.77175036  0.59761373    -0.19470
H664        H  0.37229103  0.74557068  0.64982965     0.18300
H665        H  0.29958827  0.67456558  0.58658711     0.18300
F666        F  0.32228237  0.64543501  0.63578445    -0.19460
C667        C  0.31361604  0.73108738  0.76070004    -0.20890
C668        C  0.29533508  0.75645384  0.74693431    -0.08930
C669        C  0.30258753  0.76518452  0.71485176     0.29920
C670        C  0.32126558  0.74455973  0.69579785    -0.20890
C671        C  0.33728873  0.71632877  0.70840794    -0.08950
C672        C  0.33331533  0.71110767  0.74219178     0.29930
F673        F  0.34342880  0.68359733  0.75730179    -0.19470
H674        H  0.31020465  0.72398558  0.78555260     0.18300
H675        H  0.32059700  0.75127513  0.67089875     0.18300
F676        F  0.29175114  0.79353614  0.70118838    -0.19460
C677        C  0.29250765  0.62391656  0.71408346    -0.20890
C678        C  0.31178080  0.59642391  0.72010433    -0.08930
C679        C  0.34403694  0.59731869  0.71038387     0.29920
C680        C  0.35721055  0.62628929  0.69698319    -0.20890
C681        C  0.33914745  0.65572648  0.69525127    -0.08950
C682        C  0.30565482  0.65298072  0.70150516     0.29930
F683        F  0.28545070  0.67857584  0.69593709    -0.19470
H684        H  0.26723271  0.62326992  0.72014962     0.18300
H685        H  0.38205909  0.62607002  0.68945584     0.18300
F686        F  0.36272919  0.57017538  0.71369322    -0.19460
C687        C  0.30834957  0.34818663  0.64201179    -0.20890
C688        C  0.34182646  0.34670951  0.64749122    -0.08930
C689        C  0.36117113  0.33465041  0.62190656     0.29920
C690        C  0.34693857  0.32023446  0.59451938    -0.20890
C691        C  0.31345402  0.31928710  0.59109601    -0.08950
C692        C  0.29442286  0.33477219  0.61449982     0.29930
F693        F  0.26195770  0.33477489  0.61212777    -0.19470
H694        H  0.29255308  0.35793425  0.66043772     0.18300
H695        H  0.36210229  0.30963899  0.57602610     0.18300
F696        F  0.39361739  0.33611090  0.62317360    -0.19460
C697        C  0.35826880  0.40140440  0.72317846    -0.20890
C698        C  0.34945745  0.39072961  0.69181549    -0.08930
C699        C  0.33305142  0.41436500  0.67240306     0.29920
C700        C  0.31872594  0.44212281  0.68660476    -0.20890
C701        C  0.32290607  0.44888509  0.71952825    -0.08950
C702        C  0.34500834  0.42966319  0.73696688     0.29930
F703        F  0.35132525  0.43589499  0.76854223    -0.19470
H704        H  0.37176568  0.38524903  0.73896407     0.18300
H705        H  0.30396047  0.45812817  0.67185851     0.18300
F706        F  0.33018979  0.41112063  0.63994496    -0.19460
C707        C  0.31511315  0.34341073  0.73224677    -0.20890
C708        C  0.33146927  0.33115521  0.70491192    -0.08930
C709        C  0.32445687  0.29777447  0.69732881     0.29920
C710        C  0.30718132  0.27750708  0.71824340    -0.20890
C711        C  0.29222364  0.28925975  0.74651097    -0.08950
C712        C  0.29811241  0.32320330  0.75339302     0.29930
F713        F  0.28976934  0.33768056  0.78171954    -0.19470
H714        H  0.31416417  0.36890214  0.73853647     0.18300
H715        H  0.30632706  0.25273912  0.71056742     0.18300
F716        F  0.33099635  0.28458480  0.66796126    -0.19460
C717        C  0.22462031  0.24125764  0.62136280    -0.20890
C718        C  0.21925310  0.22332291  0.59360421    -0.08930
C719        C  0.19947427  0.19515444  0.59481024     0.29920
C720        C  0.18630427  0.18462587  0.62464901    -0.20890
C721        C  0.19482149  0.20048944  0.65382271    -0.08950
C722        C  0.21243933  0.23092555  0.65058635     0.29930
F723        F  0.21653246  0.25287467  0.67500902    -0.19470
H724        H  0.23832673  0.26407034  0.62041983     0.18300
H725        H  0.17074811  0.16318442  0.62521965     0.18300
F726        F  0.19281768  0.17815810  0.56742993    -0.19460
C727        C  0.12330498  0.17658083  0.70459451    -0.20890
C728        C  0.14712686  0.19806334  0.69190999    -0.08930
C729        C  0.13744361  0.23134594  0.68659669     0.29920
C730        C  0.10848073  0.24322424  0.69855363    -0.20890
C731        C  0.08792419  0.22291562  0.71636444    -0.08950
C732        C  0.09484625  0.18899879  0.71810789     0.29930
F733        F  0.07457820  0.16791180  0.73353405    -0.19470
H734        H  0.12702004  0.15027593  0.70598367     0.18300
H735        H  0.10323667  0.26923618  0.69560806     0.18300
F736        F  0.15616585  0.25366287  0.67129903    -0.19460
C737        C  0.22284933  0.10000932  0.69311887    -0.20890
C738        C  0.21720988  0.09201806  0.72573789    -0.08930
C739        C  0.19577597  0.11172981  0.74309248     0.29920
C740        C  0.18256112  0.13998751  0.72894439    -0.20890
C741        C  0.18964476  0.15010873  0.69666984    -0.08950
C742        C  0.20943878  0.12827172  0.67861861     0.29930
F743        F  0.21977040  0.13549321  0.64844367    -0.19470
H744        H  0.23918309  0.08512460  0.67900241     0.18300
H745        H  0.16889673  0.15595407  0.74467395     0.18300
F746        F  0.18964317  0.10551556  0.77475989    -0.19460
C747        C  0.19298013  0.22344071  0.73863789    -0.20890
C748        C  0.20473077  0.20453015  0.71296569    -0.08930
C749        C  0.23825739  0.20083465  0.71044580     0.29920
C750        C  0.25859307  0.22028224  0.72836319    -0.20890
C751        C  0.24735565  0.24369410  0.75080227    -0.08950
C752        C  0.21385818  0.24138623  0.75816804     0.29930
F753        F  0.20092646  0.25315773  0.78578911    -0.19470
H754        H  0.16774888  0.22363457  0.74461999     0.18300
H755        H  0.28335747  0.21325208  0.72722690     0.18300
F756        F  0.25176967  0.18040721  0.68841979    -0.19460
C757        C  0.44272739  0.34924285  0.71334940    -0.20890
C758        C  0.44731229  0.31500968  0.71541881    -0.08930
C759        C  0.42540913  0.29445263  0.69965181     0.29920
C760        C  0.39754372  0.30748694  0.68617651    -0.20890
C761        C  0.38960898  0.34139635  0.68838224    -0.08950
C762        C  0.41524459  0.36238247  0.69835844     0.29930
F763        F  0.41469683  0.39542479  0.69304532    -0.19470
H764        H  0.46068970  0.36589099  0.72293635     0.18300
H765        H  0.38255656  0.29018700  0.67406183     0.18300
F766        F  0.42994151  0.26129455  0.69860603    -0.19460
C767        C  0.59600283  0.32515553  0.68920781    -0.20890
C768        C  0.59187580  0.32348875  0.72279343    -0.08930
C769        C  0.61454367  0.33890273  0.74247569     0.29920
C770        C  0.64263161  0.35155005  0.72914124    -0.20890
C771        C  0.65046286  0.34756459  0.69604099    -0.08950
C772        C  0.62406807  0.33898191  0.67586589     0.29930
F773        F  0.62454134  0.34448124  0.64352753    -0.19470
H774        H  0.57733961  0.31616059  0.67330661     0.18300
H775        H  0.65742867  0.36530228  0.74533929     0.18300
F776        F  0.61038021  0.34052553  0.77499378    -0.19460
C777        C  0.71250271  0.33286958  0.73768819    -0.20890
C778        C  0.70850364  0.32780677  0.70407649    -0.08930
C779        C  0.72886203  0.30317929  0.69038460     0.29920
C780        C  0.74752751  0.28282910  0.70956969    -0.20890
C781        C  0.75093772  0.28830616  0.74280464    -0.08950
C782        C  0.73148958  0.31265889  0.75685312     0.29930
F783        F  0.73324282  0.31926912  0.78895371    -0.19470
H784        H  0.70411860  0.35473687  0.74937949     0.18300
H785        H  0.76029765  0.26343603  0.69729833     0.18300
F786        F  0.73564162  0.30079821  0.65858140    -0.19460
C787        C  0.67859291  0.41315794  0.70256564    -0.20890
C788        C  0.69895573  0.38750934  0.69174256    -0.08930
C789        C  0.73242966  0.39403031  0.69177188     0.29920
C790        C  0.74467784  0.42303247  0.70492467    -0.20890
C791        C  0.72439629  0.44655835  0.71873736    -0.08950
C792        C  0.69112984  0.44184100  0.71678999     0.29930
F793        F  0.67074510  0.46486039  0.72865914    -0.19470
H794        H  0.65281606  0.41076821  0.70130833     0.18300
H795        H  0.77045385  0.42632349  0.70570744     0.18300
F796        F  0.75372214  0.37157835  0.68045020    -0.19460
C797        C  0.72859515  0.60604574  0.69018637    -0.20890
C798        C  0.72110592  0.59679062  0.72206754    -0.08930
C799        C  0.69937777  0.61639267  0.73932751     0.29920
C800        C  0.68713339  0.64529938  0.72565563    -0.20890
C801        C  0.69499277  0.65576985  0.69381431    -0.08950
C802        C  0.71609401  0.63492968  0.67617672     0.29930
F803        F  0.72821446  0.64364134  0.64702603    -0.19470
H804        H  0.74558326  0.59164613  0.67637693     0.18300
H805        H  0.67259366  0.66086490  0.74099493     0.18300
F806        F  0.69154255  0.60907906  0.77039183    -0.19460
C807        C  0.69152783  0.73292004  0.73298008    -0.20890
C808        C  0.70601758  0.71200759  0.71009493    -0.08930
C809        C  0.73988198  0.70969564  0.71059427     0.29920
C810        C  0.75789725  0.72784051  0.73244785    -0.20890
C811        C  0.74335669  0.74941175  0.75471095    -0.08950
C812        C  0.70967760  0.75320218  0.75285278     0.29930
F813        F  0.69359551  0.77755022  0.76818707    -0.19470
H814        H  0.66592450  0.73491043  0.73550016     0.18300
H815        H  0.78370725  0.72496124  0.73212761     0.18300
F816        F  0.75587756  0.69067344  0.68906583    -0.19460
C817        C  0.84682462  0.79857363  0.42783476    -0.20890
C818        C  0.82568156  0.81747564  0.44637782    -0.08930
C819        C  0.82210850  0.85112196  0.43879981     0.29920
C820        C  0.83601154  0.86429286  0.41073081    -0.20890
C821        C  0.85203543  0.84371835  0.38839238    -0.08950
C822        C  0.85961723  0.81112688  0.39909372     0.29930
F823        F  0.87425316  0.78932223  0.37908481    -0.19470
H824        H  0.85061061  0.77275472  0.43348989     0.18300
H825        H  0.83154457  0.89001421  0.40549045     0.18300
F826        F  0.80377899  0.87098527  0.45756830    -0.19460
C827        C  0.70010019  0.69925567  0.59083140    -0.20890
C828        C  0.71762031  0.72889321  0.58856115    -0.08930
C829        C  0.72293584  0.74726959  0.61643573     0.29920
C830        C  0.71340679  0.73525963  0.64633312    -0.20890
C831        C  0.69761046  0.70430911  0.65000837    -0.08950
C832        C  0.68871010  0.68795211  0.62112890     0.29930
F833        F  0.67018013  0.66038078  0.62235385    -0.19470
H834        H  0.69497919  0.68516168  0.56925310     0.18300
H835        H  0.71791046  0.75145551  0.66651015     0.18300
F836        F  0.73824229  0.77687984  0.61490294    -0.19460
C837        C  0.79697214  0.78353627  0.32419132    -0.20890
C838        C  0.79791172  0.78643612  0.29044420    -0.08930
C839        C  0.82071332  0.80817871  0.27706352     0.29920
C840        C  0.83877649  0.82869285  0.29673020    -0.20890
C841        C  0.83670606  0.82786223  0.33080940    -0.08950
C842        C  0.81355716  0.80527852  0.34376587     0.29930
F843        F  0.80247626  0.80655158  0.37451509    -0.19470
H844        H  0.78192349  0.76578959  0.33641787     0.18300
H845        H  0.85234814  0.84659085  0.28391834     0.18300
F846        F  0.82338334  0.81210456  0.24456316    -0.19460
C847        C  0.67513253  0.71689571  0.40131832    -0.20890
C848        C  0.69324737  0.69575680  0.38106057    -0.08930
C849        C  0.72508625  0.68867415  0.39139600     0.29920
C850        C  0.73772080  0.70190429  0.41973225    -0.20890
C851        C  0.72009880  0.72389056  0.43868269    -0.08950
C852        C  0.68833652  0.73080211  0.42952865     0.29930
F853        F  0.67024862  0.75186623  0.44723399    -0.19470
H854        H  0.65166590  0.72536387  0.39447767     0.18300
H855        H  0.76237508  0.69630767  0.42577572     0.18300
F856        F  0.74530169  0.67074949  0.37270059    -0.19460
C857        C  0.72987866  0.75962875  0.30829903    -0.20890
C858        C  0.75204944  0.74435974  0.28745623    -0.08930
C859        C  0.75063875  0.70953136  0.28477226     0.29920
C860        C  0.73107839  0.69113881  0.30519749    -0.20890
C861        C  0.70880708  0.70643530  0.32589521    -0.08950
C862        C  0.70909374  0.74131506  0.32741702     0.29930
F863        F  0.68805940  0.75793897  0.34632682    -0.19470
H864        H  0.72913412  0.78628144  0.31020578     0.18300
H865        H  0.73323171  0.66470991  0.30358545     0.18300
F866        F  0.76619241  0.69249770  0.26145201    -0.19460
C867        C  0.71197080  0.59633564  0.34545124    -0.20890
C868        C  0.71085595  0.59013080  0.31206399    -0.08930
C869        C  0.69105304  0.61007585  0.29287274     0.29920
C870        C  0.67798244  0.63887351  0.30555091    -0.20890
C871        C  0.68482779  0.64915827  0.33752222    -0.08950
C872        C  0.69751134  0.62467074  0.35843868     0.29930
F873        F  0.69723012  0.62816997  0.39100739    -0.19470
H874        H  0.72464177  0.57964774  0.36141355     0.18300
H875        H  0.66589885  0.65479502  0.28869446     0.18300
F876        F  0.68693585  0.60387107  0.26092494    -0.19460
C877        C  0.63871783  0.30671628  0.35412007    -0.20890
C878        C  0.64447019  0.34110476  0.35126207    -0.08930
C879        C  0.61855702  0.36070762  0.34041312     0.29920
C880        C  0.59155828  0.34578978  0.32633050    -0.20890
C881        C  0.58860996  0.31124337  0.32503564    -0.08950
C882        C  0.61148914  0.29195283  0.34100202     0.29930
F883        F  0.60905024  0.25853196  0.34161091    -0.19470
H884        H  0.65660710  0.29061519  0.36438396     0.18300
H885        H  0.57310445  0.36129626  0.31597237     0.18300
F886        F  0.61907424  0.39407376  0.34287414    -0.19460
C887        C  0.67749976  0.39989792  0.31108885    -0.20890
C888        C  0.68475113  0.39066295  0.34334131    -0.08930
C889        C  0.69931853  0.41595067  0.36217194     0.29920
C890        C  0.71466299  0.44279777  0.34715605    -0.20890
C891        C  0.71299593  0.44727084  0.31356797    -0.08950
C892        C  0.69212268  0.42695087  0.29607912     0.29930
F893        F  0.68661022  0.43230149  0.26416769    -0.19470
H894        H  0.66025120  0.38652260  0.29695825     0.18300
H895        H  0.72791310  0.46013663  0.36191574     0.18300
F896        F  0.69885761  0.41544152  0.39494019    -0.19460
C897        C  0.73915782  0.28592851  0.32721079    -0.20890
C898        C  0.74303489  0.29315717  0.29402122    -0.08930
C899        C  0.71807905  0.31246284  0.28045951     0.29920
C900        C  0.69710344  0.32990614  0.30010540    -0.20890
C901        C  0.70026670  0.33022864  0.33397033    -0.08950
C902        C  0.71866314  0.30375666  0.34673000     0.29930
F903        F  0.71457376  0.29181458  0.37713881    -0.19470
H904        H  0.74982782  0.26471840  0.33860596     0.18300
H905        H  0.67680558  0.34047589  0.28824419     0.18300
F906        F  0.71052933  0.31102892  0.24856879    -0.19460
C907        C  0.63075557  0.17902192  0.21034129    -0.20890
C908        C  0.65132102  0.19983579  0.19210322    -0.08930
C909        C  0.63996705  0.23225970  0.18547597     0.29920
C910        C  0.61063960  0.24338617  0.19762013    -0.20890
C911        C  0.59163416  0.22322672  0.21750942    -0.08950
C912        C  0.60151841  0.19045570  0.22281526     0.29930
F913        F  0.58378914  0.16975578  0.24156871    -0.19470
H914        H  0.63804535  0.15472061  0.21787470     0.18300
H915        H  0.60389699  0.26878550  0.19313783     0.18300
F916        F  0.65859882  0.25444714  0.16941380    -0.19460
C917        C  0.69567510  0.09662011  0.20190916    -0.20890
C918        C  0.72283176  0.09597394  0.22200807    -0.08930
C919        C  0.73935405  0.12502806  0.22815152     0.29920
C920        C  0.72815242  0.15458661  0.21612092    -0.20890
C921        C  0.69907719  0.15707074  0.19840065    -0.08950
C922        C  0.68448353  0.12689586  0.18922890     0.29930
F923        F  0.65940464  0.12670491  0.16837678    -0.19470
H924        H  0.68345238  0.07385464  0.19584992     0.18300
H925        H  0.74355126  0.17551309  0.22012908     0.18300
F926        F  0.76673311  0.12485255  0.24594395    -0.19460
C927        C  0.69303313  0.21767286  0.09579595    -0.20890
C928        C  0.72644012  0.21700540  0.09144081    -0.08930
C929        C  0.74511170  0.20009849  0.11417023     0.29920
C930        C  0.73128744  0.18867917  0.14280348    -0.20890
C931        C  0.69847489  0.19414789  0.15002345    -0.08950
C932        C  0.67891640  0.20496868  0.12410025     0.29930
F933        F  0.64648052  0.20430360  0.12587954    -0.19470
H934        H  0.67785160  0.22862553  0.07747978     0.18300
H935        H  0.74739373  0.17890507  0.16080598     0.18300
F936        F  0.77734414  0.19753363  0.11042886    -0.19460
C937        C  0.72667032  0.24125313  0.19410775    -0.20890
C938        C  0.70473539  0.21824314  0.20699989    -0.08930
C939        C  0.70079829  0.21760675  0.24096521     0.29920
C940        C  0.72133123  0.23530224  0.26076404    -0.20890
C941        C  0.74611749  0.25525825  0.24794830    -0.08950
C942        C  0.74789664  0.25828208  0.21391832     0.29930
F943        F  0.77018444  0.27681950  0.19882974    -0.19470
H944        H  0.72868917  0.24558231  0.16844140     0.18300
H945        H  0.71854433  0.23249843  0.28665275     0.18300
F946        F  0.67936432  0.19700611  0.25534848    -0.19460
C947        C  0.80805635  0.18743416  0.39403794    -0.20890
C948        C  0.84123440  0.19092166  0.38731095    -0.08930
C949        C  0.86057644  0.20455059  0.41215346     0.29920
C950        C  0.84635138  0.21835418  0.43991446    -0.20890
C951        C  0.81293048  0.21741409  0.44451673    -0.08950
C952        C  0.79417827  0.20030506  0.42191242     0.29930
F953        F  0.76184982  0.19826529  0.42525234    -0.19470
H954        H  0.79217729  0.17685833  0.37611993     0.18300
H955        H  0.86149643  0.23030995  0.45762935     0.18300
F956        F  0.89294707  0.20584973  0.40955700    -0.19460
C957        C  0.70815577  0.36368127  0.62583070    -0.20890
C958        C  0.68984326  0.34367202  0.64720090    -0.08930
C959        C  0.68004499  0.31224018  0.63527322     0.29920
C960        C  0.69201674  0.30013267  0.60606453    -0.20890
C961        C  0.71529942  0.31778012  0.58856565    -0.08950
C962        C  0.72196594  0.35044735  0.59776310     0.29930
F963        F  0.74294330  0.36920165  0.58052441    -0.19470
H964        H  0.71448192  0.38876654  0.63181864     0.18300
H965        H  0.68580526  0.27512300  0.59927910     0.18300
F966        F  0.66374937  0.29061850  0.65436170    -0.19460
C967        C  0.73855516  0.34173209  0.42596949    -0.20890
C968        C  0.71994076  0.32357950  0.44789056    -0.08930
C969        C  0.68649218  0.32264119  0.44361859     0.29920
C970        C  0.67245859  0.33664824  0.41599434    -0.20890
C971        C  0.69172716  0.35006275  0.39103401    -0.08950
C972        C  0.72496451  0.35455986  0.39784457     0.29930
F973        F  0.74520327  0.36721512  0.37519438    -0.19470
H974        H  0.76430182  0.34337844  0.42899102     0.18300
H975        H  0.64678372  0.33441246  0.41327924     0.18300
F976        F  0.66744389  0.30705449  0.46551057    -0.19460
C977        C  0.41472437  0.70742279  0.67607763    -0.20890
C978        C  0.39163544  0.69122385  0.69577670    -0.08930
C979        C  0.40342742  0.68107711  0.72664412     0.29920
C980        C  0.43125814  0.69487155  0.73976368    -0.20890
C981        C  0.44958393  0.71758248  0.72219398    -0.08950
C982        C  0.44227089  0.72203340  0.68937994     0.29930
F983        F  0.46168486  0.74045010  0.67005676    -0.19470
H984        H  0.41186933  0.70969123  0.65035282     0.18300
H985        H  0.43807754  0.68810175  0.76414737     0.18300
F986        F  0.39027184  0.65590086  0.74367866    -0.19460
C987        C  0.59800992  0.69198894  0.71309294    -0.20890
C988        C  0.59185929  0.72605964  0.71251000    -0.08930
C989        C  0.61213913  0.74640348  0.69397631     0.29920
C990        C  0.64048592  0.73383736  0.68100707    -0.20890
C991        C  0.65002898  0.70079873  0.68683075    -0.08950
C992        C  0.62596997  0.67915016  0.69888274     0.29930
F993        F  0.62914628  0.64589431  0.69758190    -0.19470
H994        H  0.58134941  0.67531781  0.72493126     0.18300
H995        H  0.65683100  0.75137433  0.67013677     0.18300
F996        F  0.60653351  0.77928435  0.69123695    -0.19460
C997        C  0.61524428  0.72278144  0.29150521    -0.20890
C998        C  0.58843791  0.71999359  0.31112447    -0.08930
C999        C  0.59130351  0.70495574  0.34164264     0.29920
C1000       C  0.62137760  0.69321843  0.35219309    -0.20890
C1001       C  0.64951048  0.69908966  0.33385736    -0.08950
C1002       C  0.64501720  0.71265943  0.30213028     0.29930
F1003       F  0.66871085  0.71462702  0.27968324    -0.19470
H1004       H  0.61325129  0.73351042  0.26753338     0.18300
H1005       H  0.62282408  0.68031336  0.37509208     0.18300
F1006       F  0.56514432  0.70110240  0.36081403    -0.19460
C1007       C  0.42273162  0.69673681  0.29522781    -0.20890
C1008       C  0.44366408  0.71483833  0.31460191    -0.08930
C1009       C  0.43841063  0.71554992  0.34817904     0.29920
C1010       C  0.41073772  0.70108673  0.36145769    -0.20890
C1011       C  0.38683051  0.68761638  0.34123367    -0.08950
C1012       C  0.39482919  0.68334329  0.30808165     0.29930
F1013       F  0.37450030  0.66843963  0.28715537    -0.19470
H1014       H  0.42673158  0.69484637  0.26942391     0.18300
H1015       H  0.40746801  0.70237646  0.38731640     0.18300
F1016       F  0.45953554  0.73091520  0.36804509    -0.19460
C1017       C  0.22450094  0.84855261  0.64136046    -0.20890
C1018       C  0.19190690  0.84399964  0.65039020    -0.08930
C1019       C  0.17329374  0.82334494  0.62971264     0.29920
C1020       C  0.18697967  0.80879085  0.60208646    -0.20890
C1021       C  0.21931139  0.81394140  0.59414171    -0.08950
C1022       C  0.23774875  0.83445899  0.61395332     0.29930
F1023       F  0.26958195  0.83892602  0.60847396    -0.19470
H1024       H  0.24100257  0.86116384  0.65733219     0.18300
H1025       H  0.17241719  0.79255122  0.58738221     0.18300
F1026       F  0.14301735  0.81397801  0.63702471    -0.19460
C1027       C  0.14628714  0.82142540  0.72626510    -0.20890
C1028       C  0.14888029  0.84136463  0.69787982    -0.08930
C1029       C  0.11957121  0.85145082  0.68363324     0.29920
C1030       C  0.08998934  0.83841748  0.69473311    -0.20890
C1031       C  0.08919838  0.81660730  0.72126177    -0.08950
C1032       C  0.11744360  0.80909808  0.73724770     0.29930
F1033       F  0.11717721  0.78974199  0.76416811    -0.19470
H1034       H  0.16629858  0.81528973  0.74154679     0.18300
H1035       H  0.06790965  0.84549945  0.68290935     0.18300
F1036       F  0.11967572  0.87313504  0.65856536    -0.19460
C1037       C  0.23848733  0.82769529  0.75528464    -0.20890
C1038       C  0.24647216  0.79508328  0.74712510    -0.08930
C1039       C  0.23032284  0.78112719  0.72062297     0.29920
C1040       C  0.21131043  0.80075234  0.70087668    -0.20890
C1041       C  0.20787912  0.83523312  0.70635278    -0.08950
C1042       C  0.22348723  0.84833965  0.73367519     0.29930
F1043       F  0.22488218  0.88064599  0.74090871    -0.19470
H1044       H  0.24482545  0.83854777  0.77816187     0.18300
H1045       H  0.19836612  0.78862884  0.68161620     0.18300
F1046       F  0.23313766  0.74857039  0.71357396    -0.19460
C1047       C  0.20626077  0.91280848  0.67322730    -0.20890
C1048       C  0.18499711  0.89269002  0.69155155    -0.08930
C1049       C  0.17250153  0.90768376  0.72003028     0.29920
C1050       C  0.18728181  0.93588994  0.73316312    -0.20890
C1051       C  0.21468084  0.94991158  0.71861149    -0.08950
C1052       C  0.22221037  0.93982383  0.68710417     0.29930
F1053       F  0.24584249  0.95505632  0.67004605    -0.19470
H1054       H  0.21233849  0.90716373  0.64859990     0.18300
H1055       H  0.17916325  0.94454678  0.75649889     0.18300
F1056       F  0.14945730  0.89287810  0.73813065    -0.19460
C1057       C  0.84508620  0.21241567  0.59134031    -0.20890
C1058       C  0.81153255  0.21472943  0.58943170    -0.08930
C1059       C  0.79299493  0.20087499  0.61426338     0.29920
C1060       C  0.80771770  0.18799097  0.64176638    -0.20890
C1061       C  0.84149203  0.18855615  0.64572451    -0.08950
C1062       C  0.85998512  0.19842431  0.61858758     0.29930
F1063       F  0.89226942  0.19466205  0.61796828    -0.19470
H1064       H  0.85982588  0.22160389  0.57168601     0.18300
H1065       H  0.79238303  0.17898609  0.66100104     0.18300
F1066       F  0.76049172  0.20199314  0.61314520    -0.19460
C1067       C  0.85863028  0.13538985  0.72239121    -0.20890
C1068       C  0.85124845  0.14450529  0.69011438    -0.08930
C1069       C  0.83527728  0.12037765  0.67106769     0.29920
C1070       C  0.82097700  0.09271314  0.68584818    -0.20890
C1071       C  0.82454720  0.08687544  0.71910830    -0.08950
C1072       C  0.84595308  0.10692640  0.73652250     0.29930
F1073       F  0.85162143  0.10157935  0.76840904    -0.19470
H1074       H  0.87096132  0.15253768  0.73811939     0.18300
H1075       H  0.80633005  0.07632725  0.67139067     0.18300
F1076       F  0.83186257  0.12375544  0.63864808    -0.19460
C1077       C  0.83341636  0.23777014  0.69976233    -0.20890
C1078       C  0.83392465  0.20313562  0.70342146    -0.08930
C1079       C  0.81101657  0.19004048  0.72580652     0.29920
C1080       C  0.79441629  0.21033828  0.74696892    -0.20890
C1081       C  0.79535657  0.24477108  0.74367310    -0.08950
C1082       C  0.81613852  0.25812301  0.72014146     0.29930
F1083       F  0.81769816  0.29114960  0.71473602    -0.19470
H1084       H  0.84398588  0.24989145  0.67939641     0.18300
H1085       H  0.77941227  0.19826416  0.76467923     0.18300
F1086       F  0.80019223  0.15853175  0.72474361    -0.19460
C1087       C  0.94200907  0.18854963  0.71467520    -0.20890
C1088       C  0.94630896  0.22292695  0.71400224    -0.08930
C1089       C  0.92683243  0.24130790  0.69307145     0.29920
C1090       C  0.90076679  0.22636180  0.67768012    -0.20890
C1091       C  0.89153627  0.19332590  0.68439368    -0.08950
C1092       C  0.91615244  0.17367447  0.69842420     0.29930
F1093       F  0.91628859  0.14031311  0.69585817    -0.19470
H1094       H  0.95888294  0.17307766  0.72753457     0.18300
H1095       H  0.88795996  0.24123588  0.66046692     0.18300
F1096       F  0.93204143  0.27405253  0.68827267    -0.19460
C1097       C  0.62259856  0.84407376  0.18599079    -0.20890
C1098       C  0.65073597  0.83691515  0.20373629    -0.08930
C1099       C  0.64626221  0.82215206  0.23496231     0.29920
C1100       C  0.61632409  0.81227828  0.24559670    -0.20890
C1101       C  0.58941767  0.81654064  0.22646819    -0.08950
C1102       C  0.59235804  0.83261103  0.19648612     0.29930
F1103       F  0.56612629  0.83769718  0.17779853    -0.19470
H1104       H  0.62416311  0.85782533  0.16356338     0.18300
H1105       H  0.61423542  0.80068086  0.26918424     0.18300
F1106       F  0.67011402  0.81881492  0.25699767    -0.19460
C1107       C  0.73765839  0.83665006  0.11661155    -0.20890
C1108       C  0.71952530  0.81522838  0.09742666    -0.08930
C1109       C  0.68780685  0.80819764  0.10690117     0.29920
C1110       C  0.67522132  0.82114274  0.13573920    -0.20890
C1111       C  0.69387477  0.84151213  0.15626047    -0.08950
C1112       C  0.72553853  0.84906021  0.14554101     0.29930
F1113       F  0.74598316  0.86667847  0.16434427    -0.19470
H1114       H  0.76226404  0.84235871  0.11026963     0.18300
H1115       H  0.65180839  0.81246189  0.14277095     0.18300
F1116       F  0.66921174  0.78769684  0.08899705    -0.19460
C1117       C  0.73227443  0.84393514  0.23210282    -0.20890
C1118       C  0.71009422  0.82921150  0.21090908    -0.08930
C1119       C  0.71040783  0.79437437  0.20826009     0.29920
C1120       C  0.73107197  0.77552367  0.22690036    -0.20890
C1121       C  0.75269502  0.79021966  0.24870924    -0.08950
C1122       C  0.75132726  0.82497609  0.25234601     0.29930
F1123       F  0.76619973  0.84132641  0.27660900    -0.19470
H1124       H  0.73449606  0.87031326  0.23448800     0.18300
H1125       H  0.73035052  0.74893430  0.22423631     0.18300
F1126       F  0.68941465  0.77826352  0.18882825    -0.19460
C1127       C  0.71024443  0.94127888  0.19245631    -0.20890
C1128       C  0.70938950  0.94736919  0.22583370    -0.08930
C1129       C  0.69157066  0.92595009  0.24559319     0.29920
C1130       C  0.67988395  0.89634331  0.23319020    -0.20890
C1131       C  0.68610648  0.88680890  0.20086143    -0.08950
C1132       C  0.69710336  0.91210142  0.17973876     0.29930
F1133       F  0.69631260  0.90875982  0.14716576    -0.19470
H1134       H  0.72166738  0.95881213  0.17628448     0.18300
H1135       H  0.66939335  0.87939844  0.25031380     0.18300
F1136       F  0.68843459  0.93164721  0.27775404    -0.19460
C1137       C  0.61622994  0.24989187  0.83463238    -0.20890
C1138       C  0.59339982  0.22867421  0.82119073    -0.08930
C1139       C  0.59845760  0.19445073  0.82339995     0.29920
C1140       C  0.62700988  0.18201325  0.83668897    -0.20890
C1141       C  0.65221903  0.20339599  0.84603541    -0.08950
C1142       C  0.64506424  0.23768784  0.84686520     0.29930
F1143       F  0.66640710  0.25992057  0.85849338    -0.19470
H1144       H  0.61255605  0.27635239  0.83407917     0.18300
H1145       H  0.62959609  0.15553466  0.83834289     0.18300
F1146       F  0.57593094  0.17300844  0.81244877    -0.19460
C1147       C  0.68492822  0.14313634  0.80988415    -0.20890
C1148       C  0.69276509  0.15389320  0.84149336    -0.08930
C1149       C  0.70801156  0.12948212  0.86108005     0.29920
C1150       C  0.72305144  0.10201614  0.84700594    -0.20890
C1151       C  0.72019949  0.09571635  0.81383808    -0.08950
C1152       C  0.69892179  0.11531327  0.79598265     0.29930
F1153       F  0.69217948  0.10837364  0.76464126    -0.19470
H1154       H  0.66761925  0.15588277  0.79527981     0.18300
H1155       H  0.73645761  0.08526057  0.86227446     0.18300
F1156       F  0.70743390  0.13065497  0.89381425    -0.19460
C1157       C  0.70584689  0.21272532  0.79575401    -0.20890
C1158       C  0.70888719  0.21398948  0.82968386    -0.08930
C1159       C  0.72968016  0.23933848  0.84137347     0.29920
C1160       C  0.75059890  0.25598026  0.82079918    -0.20890
C1161       C  0.75160354  0.24929827  0.78749246    -0.08950
C1162       C  0.72734669  0.22853280  0.77519510     0.29930
F1163       F  0.72393519  0.22380487  0.74291176    -0.19470
H1164       H  0.68601081  0.20092290  0.78423173     0.18300
H1165       H  0.76451879  0.27563777  0.83137390     0.18300
F1166       F  0.72774044  0.25158819  0.87177899    -0.19460
C1167       C  0.73113018  0.19105416  0.89537726    -0.20890
C1168       C  0.69830326  0.19621960  0.88784538    -0.08930
C1169       C  0.67872550  0.20909681  0.91288309     0.29920
C1170       C  0.69261825  0.22137306  0.94136481    -0.20890
C1171       C  0.72581109  0.21928740  0.94669103    -0.08950
C1172       C  0.74461299  0.20218573  0.92418464     0.29930
F1173       F  0.77671304  0.19889103  0.92840083    -0.19470
H1174       H  0.74712372  0.18080617  0.87739724     0.18300
H1175       H  0.67738385  0.23316002  0.95908896     0.18300
F1176       F  0.64641056  0.21088891  0.91006395    -0.19460
C1177       C  0.17540967  0.62637806  0.83178348    -0.20890
C1178       C  0.19640737  0.65019361  0.84538049    -0.08930
C1179       C  0.22803788  0.63914063  0.85217938     0.29920
C1180       C  0.23935774  0.60942724  0.84001260    -0.20890
C1181       C  0.22014825  0.58947144  0.82044899    -0.08950
C1182       C  0.18742260  0.59719862  0.81785055     0.29930
F1183       F  0.16726215  0.57719612  0.80117619    -0.19470
H1184       H  0.15006157  0.63102077  0.82952514     0.18300
H1185       H  0.26434717  0.60345325  0.84396018     0.18300
F1186       F  0.24955203  0.65760055  0.86846645    -0.19460
C1187       C  0.13258774  0.71716010  0.85865021    -0.20890
C1188       C  0.15200200  0.69616870  0.83941239    -0.08930
C1189       C  0.14042551  0.68937809  0.80774330     0.29920
C1190       C  0.11146701  0.70210147  0.79660259    -0.20890
C1191       C  0.09305184  0.72351895  0.81546311    -0.08950
C1192       C  0.10371459  0.73062324  0.84690320     0.29930
F1193       F  0.08687692  0.75149245  0.86601957    -0.19470
H1194       H  0.14042400  0.72574103  0.88193501     0.18300
H1195       H  0.10449473  0.69663328  0.77198249     0.18300
F1196       F  0.15846966  0.67269289  0.78597025    -0.19460
C1197       C  0.20376076  0.74311653  0.82461063    -0.20890
C1198       C  0.20598376  0.70846675  0.82218694    -0.08930
C1199       C  0.22508358  0.69559154  0.79688792     0.29920
C1200       C  0.24450247  0.71656006  0.77854703    -0.20890
C1201       C  0.24676278  0.75052477  0.78562182    -0.08950
C1202       C  0.22482966  0.76358290  0.80815650     0.29930
F1203       F  0.22458837  0.79612802  0.81562761    -0.19470
H1204       H  0.18809089  0.75424927  0.84235728     0.18300
H1205       H  0.25760402  0.70574455  0.75873119     0.18300
F1206       F  0.22450260  0.66329081  0.78853655    -0.19460
C1207       C  0.18204498  0.69225772  0.91101324    -0.20890
C1208       C  0.19922611  0.69993152  0.88236983    -0.08930
C1209       C  0.22898257  0.71706471  0.88663946     0.29920
C1210       C  0.23840554  0.72916578  0.91628679    -0.20890
C1211       C  0.21996886  0.72397077  0.94366288    -0.08950
C1212       C  0.19179460  0.70493933  0.94131836     0.29930
F1213       F  0.17415649  0.69823510  0.96811584    -0.19470
H1214       H  0.16056700  0.67725095  0.90973245     0.18300
H1215       H  0.26109910  0.74222833  0.91796986     0.18300
F1216       F  0.25127768  0.71975417  0.86300738    -0.19460
C1217       C  0.85992692  0.63751014  0.22640055    -0.20890
C1218       C  0.85232679  0.64764400  0.19449744    -0.08930
C1219       C  0.83685150  0.62303862  0.17550071     0.29920
C1220       C  0.82083163  0.59647246  0.19031195    -0.20890
C1221       C  0.82282229  0.59135459  0.22379044    -0.08950
C1222       C  0.84473552  0.61062876  0.24120332     0.29930
F1223       F  0.85088619  0.60435515  0.27283349    -0.19470
H1224       H  0.87784619  0.65009288  0.24042791     0.18300
H1225       H  0.80698267  0.57973629  0.17544564     0.18300
F1226       F  0.83758742  0.62359251  0.14273556    -0.19460
C1227       C  0.81286396  0.68403851  0.14125740    -0.20890
C1228       C  0.84598093  0.68915896  0.14740962    -0.08930
C1229       C  0.86447077  0.70330230  0.12201689     0.29920
C1230       C  0.84924569  0.71714145  0.09488724    -0.20890
C1231       C  0.81581872  0.71515590  0.09124546    -0.08950
C1232       C  0.79810836  0.69649613  0.11367054     0.29930
F1233       F  0.76582991  0.69319704  0.11088855    -0.19470
H1234       H  0.79760502  0.67319796  0.15967663     0.18300
H1235       H  0.86356866  0.73006882  0.07700346     0.18300
F1236       F  0.89687063  0.70538814  0.12359159    -0.19460
C1237       C  0.84041288  0.70774605  0.23890535    -0.20890
C1238       C  0.83709901  0.70811605  0.20491519    -0.08930
C1239       C  0.81847578  0.73473824  0.19239653     0.29920
C1240       C  0.79879894  0.75316106  0.21224452    -0.20890
C1241       C  0.79750252  0.74746307  0.24570183    -0.08950
C1242       C  0.82058485  0.72604732  0.25890614     0.29930
F1243       F  0.82364473  0.72229114  0.29138630    -0.19470
H1244       H  0.85930549  0.69494948  0.25088315     0.18300
H1245       H  0.78611233  0.77327329  0.20091115     0.18300
F1246       F  0.82162143  0.74637061  0.16178298    -0.19460
C1247       C  0.89820377  0.73188435  0.18662669    -0.20890
C1248       C  0.89276608  0.69735498  0.18792399    -0.08930
C1249       C  0.91871021  0.67743838  0.19811590     0.29920
C1250       C  0.94554109  0.69190714  0.21296754    -0.20890
C1251       C  0.94812640  0.72636053  0.21561510    -0.08950
C1252       C  0.92507163  0.74620306  0.20069016     0.29930
F1253       F  0.92704521  0.77963701  0.20205819    -0.19470
H1254       H  0.88027196  0.74830063  0.17689461     0.18300
H1255       H  0.96421180  0.67620104  0.22261200     0.18300
F1256       F  0.91838144  0.64423188  0.19409603    -0.19460
C1257       C  0.18172673  0.80537527  0.39924460    -0.20890
C1258       C  0.18716734  0.83900770  0.39127788    -0.08930
C1259       C  0.19701127  0.85985627  0.41685159     0.29920
C1260       C  0.20958595  0.84605331  0.44534958    -0.20890
C1261       C  0.20949226  0.81168367  0.45023738    -0.08950
C1262       C  0.19277041  0.79186081  0.42819531     0.29930
F1263       F  0.19041691  0.75871949  0.43259956    -0.19470
H1264       H  0.17247980  0.78832465  0.38155475     0.18300
H1265       H  0.22024037  0.86218334  0.46320799     0.18300
F1266       F  0.19595603  0.89319983  0.41426924    -0.19460
C1267       C  0.14976803  0.80688759  0.32552467    -0.20890
C1268       C  0.15239070  0.83732145  0.34240170    -0.08930
C1269       C  0.12333318  0.85347108  0.35014800     0.29920
C1270       C  0.09401507  0.84225882  0.33712800    -0.20890
C1271       C  0.09309385  0.81353142  0.31820847    -0.08950
C1272       C  0.12098746  0.79560046  0.31334347     0.29930
F1273       F  0.12051535  0.76704476  0.29620200    -0.19470
H1274       H  0.16998434  0.79071923  0.32186875     0.18300
H1275       H  0.07217112  0.85574846  0.34194755     0.18300
F1276       F  0.12340155  0.88036040  0.36960839    -0.19460
C1277       C  0.21072769  0.83502078  0.30096433    -0.20890
C1278       C  0.21189206  0.83123153  0.33488012    -0.08930
C1279       C  0.23579907  0.81034712  0.34772950     0.29920
C1280       C  0.25370727  0.79034085  0.32742004    -0.20890
C1281       C  0.25154723  0.79312769  0.29347984    -0.08950
C1282       C  0.22940814  0.81597239  0.28071170     0.29930
F1283       F  0.22606987  0.82033900  0.24835541    -0.19470
H1284       H  0.19353581  0.85151836  0.28991881     0.18300
H1285       H  0.26933438  0.77294781  0.33915965     0.18300
F1286       F  0.24333385  0.80964504  0.37955919    -0.19460
C1287       C  0.17597514  0.90568394  0.32578579    -0.20890
C1288       C  0.19429574  0.88626337  0.34750876    -0.08930
C1289       C  0.22550734  0.89821465  0.35505836     0.29920
C1290       C  0.23787573  0.92676604  0.34066312    -0.20890
C1291       C  0.22035669  0.94436377  0.31748179    -0.08950
C1292       C  0.18873308  0.93415715  0.31103059     0.29930
F1293       F  0.17051123  0.95065742  0.28919409    -0.19470
H1294       H  0.15279558  0.89765368  0.31740842     0.18300
H1295       H  0.26229054  0.93384090  0.34629552     0.18300
F1296       F  0.24570710  0.88035104  0.37387402    -0.19460
C1297       C  0.84213843  0.85297078  0.62483309    -0.20890
C1298       C  0.83683384  0.83381056  0.65304990    -0.08930
C1299       C  0.82340033  0.80160252  0.64814862     0.29920
C1300       C  0.81265367  0.79149709  0.61812606    -0.20890
C1301       C  0.81439773  0.81222618  0.59141948    -0.08950
C1302       C  0.82964060  0.84307790  0.59458615     0.29930
F1303       F  0.83309945  0.86314745  0.56849525    -0.19470
H1304       H  0.85506018  0.87612244  0.62636745     0.18300
H1305       H  0.80223601  0.76704778  0.61589509     0.18300
F1306       F  0.82139468  0.77843254  0.67184682    -0.19460
C1307       C  0.84124230  0.80420900  0.73533853    -0.20890
C1308       C  0.82773225  0.82585589  0.71253031    -0.08930
C1309       C  0.79385693  0.82852244  0.71186970     0.29920
C1310       C  0.77486667  0.80987504  0.73268727    -0.20890
C1311       C  0.78851392  0.78784319  0.75519523    -0.08950
C1312       C  0.82215154  0.78383435  0.75426800     0.29930
F1313       F  0.83724136  0.75880367  0.76928709    -0.19470
H1314       H  0.86675366  0.80156977  0.73825825     0.18300
H1315       H  0.74910041  0.81292060  0.73158121     0.18300
F1316       F  0.77889651  0.84835664  0.69017221    -0.19460
C1317       C  0.93675217  0.84580578  0.71657745    -0.20890
C1318       C  0.94309331  0.81179320  0.71627085    -0.08930
C1319       C  0.92295016  0.79137927  0.69780980     0.29920
C1320       C  0.89459608  0.80376302  0.68471104    -0.20890
C1321       C  0.88476048  0.83665109  0.69033001    -0.08950
C1322       C  0.90879600  0.85844674  0.70213625     0.29930
F1323       F  0.90544737  0.89169637  0.70066743    -0.19470
H1324       H  0.95334723  0.86261084  0.72816892     0.18300
H1325       H  0.87883143  0.78618501  0.67343104     0.18300
F1326       F  0.92895698  0.75862308  0.69476391    -0.19460
C1327       C  0.83538195  0.92120514  0.74257384    -0.20890
C1328       C  0.81517238  0.94140723  0.72437506    -0.08930
C1329       C  0.80866749  0.93249200  0.69216198     0.29920
C1330       C  0.82105266  0.90321113  0.67909288    -0.20890
C1331       C  0.84044357  0.88170630  0.69765419    -0.08950
C1332       C  0.84727030  0.89180504  0.72994661     0.29930
F1333       F  0.86379366  0.87195957  0.75046977    -0.19470
H1334       H  0.84053927  0.92710052  0.76755012     0.18300
H1335       H  0.81271128  0.89665008  0.65537997     0.18300
F1336       F  0.78921837  0.95138646  0.67348906    -0.19460
C1337       C  0.83246163  0.41187759  0.17780697    -0.20890
C1338       C  0.85083658  0.39007429  0.19708594    -0.08930
C1339       C  0.85771503  0.40064710  0.22922061     0.29920
C1340       C  0.84414892  0.42924511  0.24197589    -0.20890
C1341       C  0.82295479  0.44831285  0.22368541    -0.08950
C1342       C  0.81860650  0.44033816  0.19090539     0.29930
F1343       F  0.79916922  0.45881895  0.17182335    -0.19470
H1344       H  0.82507735  0.40571622  0.15370904     0.18300
H1345       H  0.84832693  0.43493082  0.26718174     0.18300
F1346       F  0.87439048  0.38108218  0.24989492    -0.19460
C1347       C  0.84873432  0.35768073  0.12547208    -0.20890
C1348       C  0.84188198  0.34102824  0.15487569    -0.08930
C1349       C  0.82527298  0.31026821  0.15190131     0.29920
C1350       C  0.81190987  0.30016885  0.12292000    -0.20890
C1351       C  0.81575799  0.31868591  0.09491473    -0.08950
C1352       C  0.83493995  0.34730319  0.09592753     0.29930
F1353       F  0.84092891  0.36463899  0.06846394    -0.19470
H1354       H  0.86432944  0.37908986  0.12545301     0.18300
H1355       H  0.79915829  0.27679609  0.12217275     0.18300
F1356       F  0.82444238  0.28759079  0.17597103    -0.19460
C1357       C  0.78201761  0.32650141  0.23936364    -0.20890
C1358       C  0.79244669  0.29790558  0.25571720    -0.08930
C1359       C  0.82615767  0.29124958  0.25360108     0.29920
C1360       C  0.84676557  0.31189076  0.23643068    -0.20890
C1361       C  0.83474171  0.33584039  0.21515222    -0.08950
C1362       C  0.80173514  0.34330995  0.21774061     0.29930
F1363       F  0.78769376  0.36575541  0.19797035    -0.19470
H1364       H  0.75779752  0.33466456  0.23995187     0.18300
H1365       H  0.87197203  0.30647609  0.23800657     0.18300
F1366       F  0.84018899  0.26359163  0.26538774    -0.19460
C1367       C  0.94515811  0.34644703  0.21359018    -0.20890
C1368       C  0.94923937  0.31206229  0.21265340    -0.08930
C1369       C  0.92682533  0.29325479  0.19534793     0.29920
C1370       C  0.89874141  0.30775536  0.18388390    -0.20890
C1371       C  0.89143891  0.34127439  0.19007109    -0.08950
C1372       C  0.91735155  0.36118648  0.20094319     0.29930
F1373       F  0.91610747  0.39461092  0.20021751    -0.19470
H1374       H  0.96334241  0.36193396  0.22451119     0.18300
H1375       H  0.88141838  0.29142516  0.17317976     0.18300
F1376       F  0.93041295  0.26015148  0.19197337    -0.19460
C1377       C  0.17789851  0.40408900  0.82419329    -0.20890
C1378       C  0.19601595  0.38325089  0.84467951    -0.08930
C1379       C  0.22768558  0.39404082  0.85230843     0.29920
C1380       C  0.24053240  0.42304615  0.83930330    -0.20890
C1381       C  0.22309569  0.44218335  0.81738740    -0.08950
C1382       C  0.19119189  0.43295464  0.81070183     0.29930
F1383       F  0.17310630  0.45103978  0.78997772    -0.19470
H1384       H  0.15441842  0.39699482  0.81584775     0.18300
H1385       H  0.26516398  0.42933244  0.84488670     0.18300
F1386       F  0.24762469  0.37496635  0.87025145    -0.19460
C1387       C  0.09387904  0.34038509  0.83489039    -0.20890
C1388       C  0.09214648  0.31030591  0.81800980    -0.08930
C1389       C  0.11989592  0.29186783  0.81392980     0.29920
C1390       C  0.14905701  0.30378555  0.82479430    -0.20890
C1391       C  0.15238829  0.33503996  0.83994815    -0.08950
C1392       C  0.12355490  0.35196466  0.84703239     0.29930
F1393       F  0.12404289  0.37967901  0.86534601    -0.20350
H1394       H  0.07230948  0.35454320  0.83907370     0.18300
H1395       H  0.16906877  0.28735582  0.82187075     0.18300
F1396       F  0.11900446  0.26230748  0.79851881    -0.19460
C1397       C  0.23135296  0.31078378  0.77895374    -0.20890
C1398       C  0.25279201  0.28791968  0.79305793    -0.08930
C1399       C  0.25452187  0.28694191  0.82719650     0.29920
C1400       C  0.23542242  0.30744835  0.84585532    -0.20890
C1401       C  0.21189082  0.32776272  0.83177162    -0.08950
C1402       C  0.21154901  0.33036843  0.79767838     0.29930
F1403       F  0.19031965  0.35016897  0.78218961    -0.19470
H1404       H  0.22935425  0.31262234  0.75289682     0.18300
H1405       H  0.23919386  0.30657039  0.87162211     0.18300
F1406       F  0.27353995  0.26586244  0.84351397    -0.19460
C1407       C  0.18374627  0.30289183  0.89673636    -0.20890
C1408       C  0.18829022  0.33654789  0.88835190    -0.08930
C1409       C  0.19861058  0.35774525  0.91346263     0.29920
C1410       C  0.21274137  0.34440490  0.94138924    -0.20890
C1411       C  0.21379386  0.31007610  0.94629269    -0.08950
C1412       C  0.19664646  0.28973182  0.92506107     0.29930
F1413       F  0.19534255  0.25656187  0.92966576    -0.19470
H1414       H  0.17403947  0.28556472  0.87958323     0.18300
H1415       H  0.22358957  0.36089228  0.95881392     0.18300
F1416       F  0.19663713  0.39104758  0.91082757    -0.19460
C1417       C  0.83741959  0.62305702  0.86491927    -0.20890
C1418       C  0.84974499  0.64862658  0.84501228    -0.08930
C1419       C  0.85474231  0.64062646  0.81194930     0.29920
C1420       C  0.84144917  0.61227756  0.79871620    -0.20890
C1421       C  0.82268494  0.59098747  0.81748365    -0.08950
C1422       C  0.82224211  0.59542309  0.85115349     0.29930
F1423       F  0.80639036  0.57379357  0.87058846    -0.19470
H1424       H  0.83652179  0.62561600  0.89087337     0.18300
H1425       H  0.84364115  0.60863057  0.77288102     0.18300
F1426       F  0.86907436  0.66159575  0.79093896    -0.19460
C1427       C  0.80024315  0.69130194  0.82071782    -0.20890
C1428       C  0.82489313  0.70580514  0.83916647    -0.08930
C1429       C  0.82426220  0.74051236  0.84302444     0.29920
C1430       C  0.80437104  0.75969956  0.82402414    -0.20890
C1431       C  0.78358810  0.74525141  0.80125755    -0.08950
C1432       C  0.77920809  0.71059341  0.80287239     0.29930
F1433       F  0.75423012  0.69483356  0.78868227    -0.19470
H1434       H  0.79641410  0.66493511  0.82034470     0.18300
H1435       H  0.80679924  0.78627893  0.82549474     0.18300
F1436       F  0.84555318  0.75628370  0.86239245    -0.19460
C1437       C  0.79802756  0.69598329  0.93121452    -0.20890
C1438       C  0.81505062  0.71902999  0.94942742    -0.08930
C1439       C  0.84708284  0.72590469  0.94075693     0.29920
C1440       C  0.86073047  0.71170164  0.91294477    -0.20890
C1441       C  0.84252687  0.69096133  0.89244484    -0.08950
C1442       C  0.81096252  0.68263264  0.90319078     0.29930
F1443       F  0.79057840  0.66479040  0.88457153    -0.19470
H1444       H  0.77337042  0.69007197  0.93718403     0.18300
H1445       H  0.88441124  0.71993887  0.90611803     0.18300
F1446       F  0.86484716  0.74751911  0.95825205    -0.19460
C1447       C  0.94408408  0.70188546  0.84603196    -0.20890
C1448       C  0.94444464  0.72183839  0.81805114    -0.08930
C1449       C  0.91566825  0.72964148  0.80321227     0.29920
C1450       C  0.88704185  0.71870195  0.81615013    -0.20890
C1451       C  0.88503439  0.69933300  0.84476516    -0.08950
C1452       C  0.91463957  0.68994723  0.85881839     0.29930
F1453       F  0.91513354  0.66917203  0.88459159    -0.19470
H1454       H  0.96642073  0.69515943  0.85755919     0.18300
H1455       H  0.86646996  0.72349197  0.80147861     0.18300
F1456       F  0.91517483  0.74762478  0.77540842    -0.19460
C1457       C  0.41112996  0.21185497  0.86065544    -0.20890
C1458       C  0.39163499  0.19037043  0.84209032    -0.08930
C1459       C  0.40268622  0.18312571  0.81026169     0.29920
C1460       C  0.43100042  0.19661957  0.79809355    -0.20890
C1461       C  0.44894243  0.21912824  0.81615316    -0.08950
C1462       C  0.43921027  0.22598457  0.84793961     0.29930
F1463       F  0.45592428  0.24770227  0.86634694    -0.19470
H1464       H  0.40375755  0.22086774  0.88388093     0.18300
H1465       H  0.43750948  0.19128615  0.77330702     0.18300
F1466       F  0.38429978  0.16565587  0.78928934    -0.19460
C1467       C  0.31552450  0.13497788  0.85899060    -0.20890
C1468       C  0.34706232  0.14486049  0.85043821    -0.08930
C1469       C  0.36645569  0.12004355  0.83627742     0.29920
C1470       C  0.35211721  0.09240055  0.82162885    -0.20890
C1471       C  0.31899736  0.08686576  0.82443411    -0.08950
C1472       C  0.30159893  0.10660684  0.84605708     0.29930
F1473       F  0.27000760  0.10091646  0.85184277    -0.19470
H1474       H  0.29992440  0.15066398  0.87273546     0.18300
H1475       H  0.36682330  0.07557867  0.80780297     0.18300
F1476       F  0.39886852  0.12231174  0.83579368    -0.19460
C1477       C  0.29218195  0.20871401  0.78960440    -0.20890
C1478       C  0.29629520  0.24337315  0.78777452    -0.08930
C1479       C  0.32334197  0.25680073  0.80357248     0.29920
C1480       C  0.34278595  0.23676127  0.82255602    -0.20890
C1481       C  0.33807894  0.20217304  0.82419357    -0.08950
C1482       C  0.31490580  0.18847739  0.80350707     0.29930
F1483       F  0.31270375  0.15584356  0.79715342    -0.19470
H1484       H  0.27123136  0.19607528  0.78076394     0.18300
H1485       H  0.36073253  0.24863175  0.83741517     0.18300
F1486       F  0.32890782  0.28974488  0.80420009    -0.19460
C1487       C  0.36009451  0.19228262  0.91349986    -0.20890
C1488       C  0.34336668  0.19667819  0.88405577    -0.08930
C1489       C  0.31211229  0.21095591  0.88658142     0.29920
C1490       C  0.30127308  0.22489260  0.91493885    -0.20890
C1491       C  0.31961000  0.22375420  0.94275869    -0.08950
C1492       C  0.34890511  0.20669637  0.94244010     0.29930
F1493       F  0.36616771  0.20336347  0.97000515    -0.19470
H1494       H  0.38216912  0.17832088  0.91395012     0.18300
H1495       H  0.27759379  0.23590424  0.91537217     0.18300
F1496       F  0.28994921  0.20869615  0.86281597    -0.19460
C1497       C  0.64916589  0.83909351  0.80986724    -0.20890
C1498       C  0.65010093  0.84611801  0.84346054    -0.08930
C1499       C  0.62056093  0.84517641  0.86030920     0.29920
C1500       C  0.59323489  0.83123342  0.84579656    -0.20890
C1501       C  0.59414231  0.82077894  0.81349836    -0.08950
C1502       C  0.62186161  0.82621307  0.79528082     0.29930
F1503       F  0.62312894  0.81731279  0.76368594    -0.19470
H1504       H  0.67014533  0.84246007  0.79480383     0.18300
H1505       H  0.57136293  0.82864632  0.85971668     0.18300
F1506       F  0.61812811  0.85701912  0.89083916    -0.19460
C1507       C  0.73231338  0.84559022  0.82118163    -0.20890
C1508       C  0.70824205  0.83232349  0.84183729    -0.08930
C1509       C  0.70533075  0.79730662  0.84148955     0.29920
C1510       C  0.72528679  0.77784146  0.82269114    -0.20890
C1511       C  0.74731832  0.79182894  0.80094348    -0.08950
C1512       C  0.75268863  0.82607390  0.80315042     0.29930
F1513       F  0.77778210  0.84163831  0.78875994    -0.19470
H1514       H  0.73515785  0.87135276  0.81606670     0.18300
H1515       H  0.72124294  0.75139611  0.82267234     0.18300
F1516       F  0.68017805  0.78120475  0.85445279    -0.19460
C1517       C  0.72210720  0.90451510  0.86116413    -0.20890
C1518       C  0.69140471  0.89238438  0.85229602    -0.08930
C1519       C  0.67274418  0.91363764  0.83220166     0.29920
C1520       C  0.68667253  0.94143802  0.81724774    -0.20890
C1521       C  0.71858920  0.95030165  0.82338200    -0.08950
C1522       C  0.73536642  0.93273372  0.84726202     0.29930
F1523       F  0.76620104  0.94031987  0.85475000    -0.19470
H1524       H  0.73838593  0.88928128  0.87499446     0.18300
H1525       H  0.67261281  0.95560101  0.80017031     0.18300
F1526       F  0.64151957  0.90749543  0.82542042    -0.19460
C1527       C  0.70182063  0.86608986  0.91915877    -0.20890
C1528       C  0.68442552  0.84638340  0.89687755    -0.08930
C1529       C  0.67403722  0.81548829  0.90967866     0.29920
C1530       C  0.68902229  0.80145996  0.93661851    -0.20890
C1531       C  0.71306228  0.81852918  0.95332422    -0.08950
C1532       C  0.71758403  0.85200526  0.94580790     0.29930
F1533       F  0.73721324  0.87117013  0.96400422    -0.19470
H1534       H  0.70435784  0.89234882  0.91608326     0.18300
H1535       H  0.68209794  0.77674607  0.94392275     0.18300
F1536       F  0.64841218  0.79899929  0.89768218    -0.19460
C1537       C  0.41241223  0.83711635  0.17451393    -0.20890
C1538       C  0.38880507  0.85170897  0.19432762    -0.08930
C1539       C  0.39714358  0.85697425  0.22723986     0.29920
C1540       C  0.42455316  0.84296974  0.24050263    -0.20890
C1541       C  0.44478038  0.82346121  0.22170991    -0.08950
C1542       C  0.43950056  0.82205486  0.18816407     0.29930
F1543       F  0.46001062  0.80545216  0.16865929    -0.19470
H1544       H  0.40929365  0.83540158  0.14867292     0.18300
H1545       H  0.42874754  0.84572226  0.26618650     0.18300
F1546       F  0.37784720  0.87392475  0.24753808    -0.19460
C1547       C  0.35244083  0.81007948  0.13873085    -0.20890
C1548       C  0.34658233  0.84331400  0.14757765    -0.08930
C1549       C  0.33267231  0.86303125  0.12256157     0.29920
C1550       C  0.31749112  0.84838192  0.09591042    -0.20890
C1551       C  0.31863521  0.81419996  0.09119653    -0.08950
C1552       C  0.33811766  0.79552628  0.11182374     0.29930
F1553       F  0.34279382  0.76280705  0.10670714    -0.19470
H1554       H  0.36893196  0.79477097  0.15170299     0.18300
H1555       H  0.30519462  0.86396208  0.07862115     0.18300
F1556       F  0.33442318  0.89646949  0.12261012    -0.19460
C1557       C  0.33725684  0.80031071  0.20986864    -0.20890
C1558       C  0.33367558  0.83494187  0.20846560    -0.08930
C1559       C  0.31538175  0.84873256  0.23433013     0.29920
C1560       C  0.29683599  0.82901593  0.25439031    -0.20890
C1561       C  0.29510872  0.79471596  0.25010774    -0.08950
C1562       C  0.31736176  0.78049650  0.22869286     0.29930
F1563       F  0.31991443  0.74724736  0.22576082    -0.19470
H1564       H  0.35636522  0.78780386  0.19797364     0.18300
H1565       H  0.28466369  0.84131845  0.27393849     0.18300
F1566       F  0.31735429  0.88081162  0.24333605    -0.19460
C1567       C  0.30805190  0.89832010  0.18193400    -0.20890
C1568       C  0.34138874  0.89253970  0.18598432    -0.08930
C1569       C  0.36034715  0.91949464  0.19652747     0.29920
C1570       C  0.34556495  0.94738264  0.20987027    -0.20890
C1571       C  0.31200404  0.95018137  0.21040980    -0.08950
C1572       C  0.29356681  0.92670516  0.19388618     0.29930
F1573       F  0.26112284  0.92898435  0.19279894    -0.19470
H1574       H  0.29259937  0.87891212  0.17286412     0.18300
H1575       H  0.36033942  0.96636168  0.22073432     0.18300
F1576       F  0.39282596  0.91860698  0.19573662    -0.19460
C1577       C  0.41636981  0.84472068  0.85764890    -0.20890
C1578       C  0.38726952  0.83710003  0.84152136    -0.08930
C1579       C  0.39041307  0.81789678  0.81256607     0.29920
C1580       C  0.41952740  0.80533175  0.80261186    -0.20890
C1581       C  0.44746935  0.81171514  0.81939173    -0.08950
C1582       C  0.44609903  0.83162303  0.84715681     0.29930
F1583       F  0.47332549  0.83902866  0.86351996    -0.19470
H1584       H  0.41600010  0.86073396  0.87853666     0.18300
H1585       H  0.42035500  0.79107574  0.78045749     0.18300
F1586       F  0.36652731  0.81259360  0.79121546    -0.19460
C1587       C  0.32090742  0.80092209  0.84078898    -0.20890
C1588       C  0.32744234  0.83448434  0.83344517    -0.08930
C1589       C  0.31270493  0.84737777  0.80546390     0.29920
C1590       C  0.30106830  0.82595958  0.78240136    -0.20890
C1591       C  0.28986595  0.79459496  0.79158121    -0.08950
C1592       C  0.30059769  0.78211329  0.82157810     0.29930
F1593       F  0.29374094  0.75112173  0.83163440    -0.19470
H1594       H  0.33173406  0.78893492  0.86143993     0.18300
H1595       H  0.29721897  0.83562680  0.75833154     0.18300
F1596       F  0.30763886  0.87975398  0.80017070    -0.19460
C1597       C  0.36229750  0.82370296  0.90936515    -0.20890
C1598       C  0.34434119  0.84476837  0.88878699    -0.08930
C1599       C  0.31242542  0.85193938  0.89894178     0.29920
C1600       C  0.29946480  0.83853687  0.92717938    -0.20890
C1601       C  0.31674986  0.81622535  0.94620877    -0.08950
C1602       C  0.34868814  0.80948893  0.93741192     0.29930
F1603       F  0.36651791  0.78818858  0.95520757    -0.19470
H1604       H  0.38600109  0.81561261  0.90287804     0.18300
H1605       H  0.27471084  0.84404477  0.93289363     0.18300
F1606       F  0.29222240  0.86941617  0.87972416    -0.19460
C1607       C  0.36492968  0.90104694  0.81337311    -0.20890
C1608       C  0.35496801  0.89038630  0.84454085    -0.08930
C1609       C  0.33977788  0.91470974  0.86373492     0.29920
C1610       C  0.32458514  0.94171944  0.84896139    -0.20890
C1611       C  0.32784827  0.94752619  0.81564396    -0.08950
C1612       C  0.35145623  0.92936920  0.79897993     0.29930
F1613       F  0.35807875  0.93583763  0.76747034    -0.19470
H1614       H  0.37899503  0.88500333  0.79812491     0.18300
H1615       H  0.30971752  0.95772099  0.86353203     0.18300
F1616       F  0.33860629  0.91239335  0.89640000    -0.19460
C1617       C  0.85866820  0.40244245  0.81298798    -0.20890
C1618       C  0.84762034  0.38898466  0.84281041    -0.08930
C1619       C  0.82580356  0.40909123  0.86058062     0.29920
C1620       C  0.81236576  0.43743543  0.84661444    -0.20890
C1621       C  0.82106115  0.44786598  0.81547039    -0.08950
C1622       C  0.84596994  0.43124858  0.79973088     0.29930
F1623       F  0.85594130  0.44063072  0.76983327    -0.19470
H1624       H  0.87361704  0.38799722  0.79705839     0.18300
H1625       H  0.79418750  0.45070034  0.85998020     0.18300
F1626       F  0.81547226  0.40123604  0.89070070    -0.19460
C1627       C  0.81968318  0.34309507  0.79850141    -0.20890
C1628       C  0.83790521  0.32923700  0.82417971    -0.08930
C1629       C  0.83706360  0.29412328  0.82626052     0.29920
C1630       C  0.81901414  0.27523159  0.80484387    -0.20890
C1631       C  0.79875645  0.29000217  0.78199625    -0.08950
C1632       C  0.80247201  0.32411128  0.77681886     0.29930
F1633       F  0.78970595  0.34000088  0.75096792    -0.19470
H1634       H  0.81576834  0.36895866  0.79519683     0.18300
H1635       H  0.81811057  0.24873495  0.80847727     0.18300
F1636       F  0.84898260  0.27735992  0.85161908    -0.19460
C1637       C  0.91460091  0.36334214  0.83562604    -0.20890
C1638       C  0.89137466  0.34295491  0.85079118    -0.08930
C1639       C  0.90329536  0.31194716  0.86155297     0.29920
C1640       C  0.93054103  0.29810985  0.84738676    -0.20890
C1641       C  0.94820682  0.31586543  0.82437330    -0.08950
C1642       C  0.94166309  0.34965969  0.82081307     0.29930
F1643       F  0.96102653  0.36943242  0.80275664    -0.19470
H1644       H  0.91190550  0.38969786  0.83391940     0.18300
H1645       H  0.93721616  0.27314489  0.85388395     0.18300
F1646       F  0.88990731  0.29528490  0.88665105    -0.19460
C1647       C  0.85629861  0.34592457  0.91321704    -0.20890
C1648       C  0.83895566  0.34226053  0.88405142    -0.08930
C1649       C  0.80641484  0.33184221  0.88664228     0.29920
C1650       C  0.79385595  0.32122447  0.91610171    -0.20890
C1651       C  0.81264194  0.32128571  0.94397515    -0.08950
C1652       C  0.84371270  0.33450316  0.94269127     0.29930
F1653       F  0.86179022  0.33639434  0.96986200    -0.19470
H1654       H  0.88022911  0.35632563  0.91298845     0.18300
H1655       H  0.76945339  0.31197093  0.91694511     0.18300
F1656       F  0.78614977  0.33243684  0.86103746    -0.19460
loop_ 
_geom_bond_atom_site_label_1 
_geom_bond_atom_site_label_2 
_geom_bond_distance 
_geom_bond_site_symmetry_2 
_ccdc_geom_bond_type 
C1         C1618   1.583       .  S
C1         C1628   1.583       .  S
C1         C1638   1.584       .  S
C1         C1648   1.556       .  S
C2         C1578   1.583       .  S
C2         C1588   1.554       .  S
C2         C1598   1.576       .  S
C2         C1608   1.575       .  S
C3         C1538   1.559       .  S
C3         C1548   1.594       .  S
C3         C1558   1.578       .  S
C3         C1568   1.560       .  S
C4         C1498   1.559       .  S
C4         C1508   1.581       .  S
C4         C1518   1.582       .  S
C4         C1528   1.591       .  S
C5         C1458   1.567       .  S
C5         C1468   1.571       .  S
C5         C1481   1.552       .  S
C5         C1488   1.575       .  S
C6         C1418   1.564       .  S
C6         C1428   1.552       .  S
C6         C1441   1.566       .  S
C6         C1451   1.576       .  S
C7         C1378   1.566       .  S
C7         C1391   1.571       .  S
C7         C1401   1.555       .  S
C7         C1408   1.563       .  S
C8         C1338   1.568       .  S
C8         C1348   1.577       .  S
C8         C1361   1.559       .  S
C8         C1371   1.571       .  S
C9         C1298   1.575       .  S
C9         C1308   1.551       .  S
C9         C1321   1.572       .  S
C9         C1331   1.569       .  S
C10        C1258   1.560       .  S
C10        C1268   1.567       .  S
C10        C1278   1.553       .  S
C10        C1288   1.566       .  S
C11        C1218   1.588       .  S
C11        C1228   1.564       .  S
C11        C1238   1.577       .  S
C11        C1248   1.556       .  S
C12        C1178   1.570       .  S
C12        C1188   1.574       .  S
C12        C1198   1.550       .  S
C12        C1208   1.580       .  S
C13        C1141   1.565       .  S
C13        C1148   1.594       .  S
C13        C1158   1.579       .  S
C13        C1168   1.567       .  S
C14        C1098   1.567       .  S
C14        C1111   1.569       .  S
C14        C1118   1.550       .  S
C14        C1131   1.567       .  S
C15        C1061   1.562       .  S
C15        C1068   1.567       .  S
C15        C1078   1.580       .  S
C15        C1091   1.591       .  S
C16        C1018   1.577       .  S
C16        C1028   1.573       .  S
C16        C1041   1.557       .  S
C16        C1048   1.583       .  S
O17         Cu25   2.012       .  S
O17          C27   1.280       .  A
O18         Cu25   2.008       .  S
O18          C28   1.275       .  A
O19         Cu25   2.011       .  S
O19          C29   1.279       .  A
O20         Cu25   2.005       .  S
O20          C30   1.277       .  A
O21         Cu26   2.004       .  S
O21          C30   1.279       .  A
O22         Cu26   2.002       .  S
O22          C29   1.275       .  A
O23         Cu26   2.014       .  S
O23          C28   1.280       .  A
O24         Cu26   2.009       .  S
O24          C27   1.277       .  A
Cu25        Cu26   2.375       .  S
C27        C1541   1.480       .  S
C28         C998   1.468       .  S
C29        C1101   1.465       .  S
C30        C1008   1.475       .  S
O31         Cu39   2.031       .  S
O31          C41   1.279       .  A
O32         Cu39   2.041       .  S
O32          C42   1.282       .  A
O33         Cu39   2.016       .  S
O33          C43   1.278       .  A
O34         Cu39   2.019       .  S
O34          C44   1.280       .  A
O35         Cu40   2.021       .  S
O35          C44   1.279       .  A
O36         Cu40   2.010       .  S
O36          C43   1.278       .  A
O37         Cu40   2.004       .  S
O37          C42   1.277       .  A
O38         Cu40   2.011       .  S
O38          C41   1.278       .  A
Cu39        Cu40   2.372       .  S
C41        C1581   1.475       .  S
C42         C988   1.488       .  S
C43        C1501   1.471       .  S
C44         C981   1.487       .  S
O45         Cu53   2.023       .  S
O45          C55   1.280       .  A
O46         Cu53   2.018       .  S
O46          C56   1.279       .  A
O47         Cu53   2.012       .  S
O47          C57   1.278       .  A
O48         Cu53   1.997       .  S
O48          C58   1.276       .  A
O49         Cu54   2.043       .  S
O49          C58   1.283       .  A
O50         Cu54   2.038       .  S
O50          C57   1.281       .  A
O51         Cu54   2.011       .  S
O51          C56   1.278       .  A
O52         Cu54   2.016       .  S
O52          C55   1.278       .  A
Cu53        Cu54   2.369       .  S
C55        C1058   1.482       .  S
C56         C968   1.482       .  S
C57         C951   1.491       .  S
C58         C961   1.490       .  S
C59         C908   1.566       .  S
C59         C921   1.569       .  S
C59         C931   1.564       .  S
C59         C938   1.556       .  S
C60         C878   1.561       .  S
C60         C888   1.585       .  S
C60         C901   1.572       .  S
C60         C971   1.563       .  S
O61         Cu69   2.009       .  S
O61          C71   1.278       .  A
O62         Cu69   2.016       .  S
O62          C72   1.279       .  A
O63         Cu69   2.024       .  S
O63          C73   1.280       .  A
O64         Cu69   2.028       .  S
O64          C74   1.281       .  A
O65         Cu70   2.003       .  S
O65          C74   1.277       .  A
O66         Cu70   2.007       .  S
O66          C73   1.278       .  A
O67         Cu70   2.018       .  S
O67          C72   1.279       .  A
O68         Cu70   2.018       .  S
O68          C71   1.279       .  A
Cu69        Cu70   2.368       .  S
C71         C891   1.484       .  S
C72        C1221   1.487       .  S
C73         C868   1.486       .  S
C74        C1341   1.487       .  S
C75         C848   1.573       .  S
C75         C861   1.549       .  S
C75         C871   1.568       .  S
C75        C1001   1.570       .  S
C76         C838   1.542       .  S
C76         C858   1.548       .  S
C76        C1121   1.550       .  S
C76        C1241   1.540       .  S
O77         Cu85   2.008       .  S
O77          C87   1.279       .  A
O78         Cu85   2.008       .  S
O78          C88   1.279       .  A
O79         Cu85   2.013       .  S
O79          C89   1.279       .  A
O80         Cu85   2.019       .  S
O80          C90   1.277       .  A
O81         Cu86   2.018       .  S
O81          C90   1.279       .  A
O82         Cu86   2.012       .  S
O82          C89   1.278       .  A
O83         Cu86   2.042       .  S
O83          C88   1.281       .  A
O84         Cu86   2.031       .  S
O84          C87   1.279       .  A
Cu85        Cu86   2.370       .  S
C87        C1301   1.477       .  S
C88         C851   1.493       .  S
C89         C818   1.484       .  S
C90         C828   1.474       .  S
C91         C801   1.571       .  S
C91         C808   1.559       .  S
C91         C831   1.568       .  S
C91         C991   1.569       .  S
C92         C811   1.548       .  S
C92        C1311   1.550       .  S
C92        C1431   1.543       .  S
C92        C1511   1.543       .  S
O93        Cu101   2.010       .  S
O93         C103   1.279       .  A
O94        Cu101   2.024       .  S
O94         C104   1.280       .  A
O95        Cu101   1.986       .  S
O95         C105   1.276       .  A
O96        Cu101   1.990       .  S
O96         C106   1.275       .  A
O97        Cu102   2.038       .  S
O97         C106   1.281       .  A
O98        Cu102   2.030       .  S
O98         C105   1.280       .  A
O99        Cu102   2.024       .  S
O99         C104   1.280       .  A
O100       Cu102   2.015       .  S
O100        C103   1.279       .  A
Cu101      Cu102   2.368       .  S
C103       C1621   1.487       .  S
C104        C798   1.494       .  S
C105       C1421   1.480       .  S
C106        C791   1.479       .  S
C107        C771   1.586       .  S
C107        C778   1.582       .  S
C107        C788   1.563       .  S
C107        C958   1.570       .  S
C108        C781   1.545       .  S
C108       C1081   1.543       .  S
C108       C1161   1.551       .  S
C108       C1631   1.547       .  S
O109       Cu117   2.022       .  S
O109        C119   1.280       .  A
O110       Cu117   2.030       .  S
O110        C120   1.280       .  A
O111       Cu117   2.017       .  S
O111        C121   1.278       .  A
O112       Cu117   2.001       .  S
O112        C122   1.277       .  A
O113       Cu118   2.021       .  S
O113        C122   1.279       .  A
O114       Cu118   2.009       .  S
O114        C121   1.279       .  A
O115       Cu118   2.015       .  S
O115        C120   1.279       .  A
O116       Cu118   2.025       .  S
O116        C119   1.279       .  A
Cu117      Cu118   2.371       .  S
C119       C1138   1.485       .  S
C120        C758   1.486       .  S
C121       C1461   1.484       .  S
C122        C768   1.477       .  S
C123        C721   1.575       .  S
C123        C728   1.574       .  S
C123        C741   1.582       .  S
C123        C748   1.540       .  S
C124        C688   1.559       .  S
C124        C698   1.580       .  S
C124        C708   1.586       .  S
C124        C761   1.586       .  S
O125       Cu133   2.029       .  S
O125        C135   1.282       .  A
O126       Cu133   2.031       .  S
O126        C136   1.280       .  A
O127       Cu133   1.992       .  S
O127        C137   1.277       .  A
O128       Cu133   1.987       .  S
O128        C138   1.274       .  A
O129       Cu134   2.052       .  S
O129        C138   1.284       .  A
O130       Cu134   2.042       .  S
O130        C137   1.281       .  A
O131       Cu134   2.011       .  S
O131        C136   1.277       .  A
O132       Cu134   2.013       .  S
O132        C135   1.277       .  A
Cu133      Cu134   2.368       .  S
C135       C1381   1.491       .  S
C136        C678   1.479       .  S
C137       C1181   1.487       .  S
C138        C701   1.489       .  S
C139        C658   1.590       .  S
C139        C671   1.584       .  S
C139        C681   1.564       .  S
C139        C978   1.591       .  S
C140        C668   1.547       .  S
C140       C1038   1.547       .  S
C140       C1201   1.540       .  S
C140       C1591   1.541       .  S
O141       Cu149   2.000       .  S
O141        C151   1.277       .  A
O142       Cu149   1.987       .  S
O142        C152   1.276       .  A
O143       Cu149   2.022       .  S
O143        C153   1.280       .  A
O144       Cu149   2.021       .  S
O144        C154   1.279       .  A
O145       Cu150   2.016       .  S
O145        C154   1.279       .  A
O146       Cu150   2.018       .  S
O146        C153   1.279       .  A
O147       Cu150   2.037       .  S
O147        C152   1.281       .  A
O148       Cu150   2.037       .  S
O148        C151   1.281       .  A
Cu149      Cu150   2.367       .  S
C151        C648   1.489       .  S
C152       C1021   1.483       .  S
C153        C661   1.491       .  S
C154       C1261   1.485       .  S
C155        C611   1.560       .  S
C155        C618   1.576       .  S
C155        C631   1.584       .  S
C155        C638   1.585       .  S
C156        C588   1.559       .  S
C156        C601   1.576       .  S
C156        C651   1.593       .  S
C156       C1011   1.556       .  S
C157        C548   1.564       .  S
C157        C558   1.588       .  S
C157        C571   1.558       .  S
C157        C578   1.579       .  S
O158       Cu166   1.990       .  S
O158        C168   1.275       .  A
O159       Cu166   1.980       .  S
O159        C169   1.274       .  A
O160       Cu166   2.047       .  S
O160        C170   1.283       .  A
O161       Cu166   2.037       .  S
O161        C171   1.283       .  A
O162       Cu167   1.977       .  S
O162        C171   1.273       .  A
O163       Cu167   1.984       .  S
O163        C170   1.274       .  A
O164       Cu167   2.038       .  S
O164        C169   1.282       .  A
O165       Cu167   2.038       .  S
O165        C168   1.282       .  A
Cu166      Cu167   2.369       .  S
C168        C608   1.479       .  S
C169        C568   1.477       .  S
C170        C538   1.490       .  S
C171        C591   1.476       .  S
C172        C598   1.550       .  S
C172        C641   1.552       .  S
C172       C1281   1.545       .  S
C172       C1561   1.542       .  S
O173       Cu181   2.009       .  S
O173        C183   1.276       .  A
O174       Cu181   2.001   1_655  S
O174        C184   1.277       .  A
O175       Cu181   2.006   1_655  S
O175        C185   1.278       .  A
O176       Cu181   2.020       .  S
O176        C186   1.279       .  A
O177       Cu182   2.002       .  S
O177        C186   1.278       .  A
O178       Cu182   2.008   1_655  S
O178        C185   1.278       .  A
O179       Cu182   2.018   1_655  S
O179        C184   1.278       .  A
O180       Cu182   2.005       .  S
O180        C183   1.277       .  A
Cu181      Cu182   2.375       .  S
C183       C1271   1.463       .  S
C184       C1251   1.474       .  S
C185        C531   1.477       .  S
C186        C628   1.479       .  S
O187       Cu195   2.013   1_556  S
O187        C197   1.279       .  A
O188       Cu195   2.005       .  S
O188        C198   1.278       .  A
O189       Cu195   2.030       .  S
O189        C199   1.280       .  A
O190       Cu195   2.029   1_556  S
O190        C200   1.279       .  A
O191       Cu196   2.003   1_556  S
O191        C200   1.277       .  A
O192       Cu196   2.004       .  S
O192        C199   1.277       .  A
O193       Cu196   2.031       .  S
O193        C198   1.281       .  A
O194       Cu196   2.044   1_556  S
O194        C197   1.282       .  A
Cu195      Cu196   2.368       .  S
C197       C1601   1.496       .  S
C198        C621   1.489       .  S
C199       C1551   1.486       .  S
C200       C1211   1.470       .  S
C201        C711   1.583       .  S
C201        C751   1.579       .  S
C201       C1398   1.548       .  S
C201       C1478   1.550       .  S
O202       Cu210   1.986       .  S
O202        C212   1.274       .  A
O203       Cu210   2.008   1_565  S
O203        C213   1.277       .  A
O204       Cu210   2.047   1_565  S
O204        C214   1.284       .  A
O205       Cu210   2.042       .  S
O205        C215   1.283       .  A
O206       Cu211   2.018       .  S
O206        C215   1.278       .  A
O207       Cu211   2.019   1_565  S
O207        C214   1.277       .  A
O208       Cu211   2.051   1_565  S
O208        C213   1.284       .  A
O209       Cu211   2.047       .  S
O209        C212   1.283       .  A
Cu210      Cu211   2.364       .  S
C212       C1471   1.486       .  S
C213       C1051   1.499       .  S
C214       C1611   1.499       .  S
C215        C738   1.497       .  S
O216       Cu224   2.014       .  S
O216        C226   1.276       .  A
O217       Cu224   2.019   1_655  S
O217        C227   1.279       .  A
O218       Cu224   2.009   1_655  S
O218        C228   1.278       .  A
O219       Cu224   2.019       .  S
O219        C229   1.281       .  A
O220       Cu225   2.013       .  S
O220        C229   1.277       .  A
O221       Cu225   2.016   1_655  S
O221        C228   1.279       .  A
O222       Cu225   2.025   1_655  S
O222        C227   1.280       .  A
O223       Cu225   2.024       .  S
O223        C226   1.281       .  A
Cu224      Cu225   2.370       .  S
C226       C1388   1.474       .  S
C227       C1088   1.490       .  S
C228       C1641   1.484       .  S
C229        C731   1.485       .  S
O230       Cu238   2.027       .  S
O230        C240   1.280       .  A
O231       Cu238   2.040       .  S
O231        C241   1.282       .  A
O232       Cu238   2.015       .  S
O232        C242   1.277       .  A
O233       Cu238   2.023       .  S
O233        C243   1.279       .  A
O234       Cu239   2.003       .  S
O234        C243   1.278       .  A
O235       Cu239   1.994       .  S
O235        C242   1.276       .  A
O236       Cu239   1.991       .  S
O236        C241   1.276       .  A
O237       Cu239   1.975       .  S
O237        C240   1.275       .  A
Cu238      Cu239   2.373       .  S
C240        C518   1.475       .  S
C241        C691   1.482       .  S
C242        C718   1.461       .  S
C243        C561   1.484       .  S
C244        C508   1.554       .  S
C244        C898   1.569       .  S
C244        C941   1.549       .  S
C244       C1358   1.574       .  S
O245       Cu253   2.005   1_565  S
O245        C255   1.278       .  A
O246       Cu253   2.024       .  S
O246        C256   1.280       .  A
O247       Cu253   2.009       .  S
O247        C257   1.277       .  A
O248       Cu253   2.003   1_565  S
O248        C258   1.277       .  A
O249       Cu254   2.017   1_565  S
O249        C258   1.278       .  A
O250       Cu254   2.006       .  S
O250        C257   1.277       .  A
O251       Cu254   2.023       .  S
O251        C256   1.280       .  A
O252       Cu254   2.024   1_565  S
O252        C255   1.280       .  A
Cu253      Cu254   2.373       .  S
C255       C1128   1.482       .  S
C256        C501   1.490       .  S
C257        C918   1.463       .  S
C258        C488   1.472       .  S
O259       Cu267   2.015       .  S
O259        C269   1.278       .  A
O260       Cu267   2.010   1_556  S
O260        C270   1.278       .  A
O261       Cu267   2.022   1_556  S
O261        C271   1.279       .  A
O262       Cu267   2.040       .  S
O262        C272   1.280       .  A
O263       Cu268   2.006       .  S
O263        C272   1.277       .  A
O264       Cu268   2.012   1_556  S
O264        C271   1.279       .  A
O265       Cu268   2.012   1_556  S
O265        C270   1.277       .  A
O266       Cu268   2.017       .  S
O266        C269   1.279       .  A
Cu267      Cu268   2.372       .  S
C269        C928   1.483       .  S
C270       C1651   1.470       .  S
C271       C1171   1.486       .  S
C272       C1351   1.476       .  S
O273       Cu281   2.019       .  S
O273        C283   1.279       .  A
O274       Cu281   2.016       .  S
O274        C284   1.278       .  A
O275       Cu281   2.020       .  S
O275        C285   1.280       .  A
O276       Cu281   2.021       .  S
O276        C286   1.278       .  A
O277       Cu282   2.019       .  S
O277        C286   1.279       .  A
O278       Cu282   2.010       .  S
O278        C285   1.277       .  A
O279       Cu282   2.029       .  S
O279        C284   1.281       .  A
O280       Cu282   2.014       .  S
O280        C283   1.279       .  A
Cu281      Cu282   2.370       .  S
C283        C551   1.484       .  S
C284        C911   1.493       .  S
C285        C881   1.482       .  S
C286        C481   1.476       .  S
C287        C451   1.578       .  S
C287        C458   1.562       .  S
C287        C468   1.563       .  S
C287        C541   1.577       .  S
C288        C418   1.561       .  S
C288        C431   1.561       .  S
C288        C438   1.554       .  S
C288        C478   1.567       .  S
C289        C388   1.590       .  S
C289        C401   1.577       .  S
C289        C411   1.571       .  S
C289        C521   1.552       .  S
C290        C408   1.566       .  S
C290        C441   1.578       .  S
C290        C471   1.553       .  S
C290        C581   1.543       .  S
O291       Cu299   2.041       .  S
O291        C301   1.281       .  A
O292       Cu299   2.030   1_655  S
O292        C302   1.280       .  A
O293       Cu299   2.008   1_655  S
O293        C303   1.278       .  A
O294       Cu299   2.013       .  S
O294        C304   1.279       .  A
O295       Cu300   2.038       .  S
O295        C304   1.281       .  A
O296       Cu300   2.042   1_655  S
O296        C303   1.281       .  A
O297       Cu300   2.009   1_655  S
O297        C302   1.278       .  A
O298       Cu300   2.010       .  S
O298        C301   1.277       .  A
Cu299      Cu300   2.367       .  S
C301        C398   1.486       .  S
C302       C1368   1.488       .  S
C303        C381   1.489       .  S
C304        C448   1.493       .  S
O305       Cu313   2.006   1_565  S
O305        C315   1.277       .  A
O306       Cu313   2.005       .  S
O306        C316   1.276       .  A
O307       Cu313   2.028       .  S
O307        C317   1.282       .  A
O308       Cu313   2.030   1_565  S
O308        C318   1.280       .  A
O309       Cu314   2.014   1_565  S
O309        C318   1.279       .  A
O310       Cu314   2.002       .  S
O310        C317   1.276       .  A
O311       Cu314   2.014       .  S
O311        C316   1.280       .  A
O312       Cu314   2.015   1_565  S
O312        C315   1.279       .  A
Cu313      Cu314   2.369       .  S
C315       C1571   1.478       .  S
C316        C391   1.481       .  S
C317        C428   1.489       .  S
C318       C1291   1.494       .  S
O319       Cu327   2.016       .  S
O319        C329   1.278       .  A
O320       Cu327   2.015   1_556  S
O320        C330   1.279       .  A
O321       Cu327   1.996   1_556  S
O321        C331   1.276       .  A
O322       Cu327   2.001       .  S
O322        C332   1.277       .  A
O323       Cu328   2.006       .  S
O323        C332   1.276       .  A
O324       Cu328   2.024   1_556  S
O324        C331   1.278       .  A
O325       Cu328   2.020   1_556  S
O325        C330   1.279       .  A
O326       Cu328   2.019       .  S
O326        C329   1.280       .  A
Cu327      Cu328   2.375       .  S
C329        C421   1.480       .  S
C330       C1411   1.484       .  S
C331       C1491   1.466       .  S
C332        C461   1.460       .  S
O333       Cu341   2.026   1_655  S
O333        C343   1.280       .  A
O334       Cu341   2.022       .  S
O334        C344   1.279       .  A
O335       Cu341   1.999       .  S
O335        C345   1.277       .  A
O336       Cu341   1.995   1_655  S
O336        C346   1.275       .  A
O337       Cu342   2.050   1_655  S
O337        C346   1.284       .  A
O338       Cu342   2.049       .  S
O338        C345   1.283       .  A
O339       Cu342   2.001       .  S
O339        C344   1.276       .  A
O340       Cu342   2.012   1_655  S
O340        C343   1.276       .  A
Cu341      Cu342   2.371       .  S
C343       C1448   1.472       .  S
C344       C1031   1.466       .  S
C345       C1191   1.494       .  S
C346       C1318   1.490       .  S
O347       Cu355   1.989       .  S
O347        C357   1.275       .  A
O348       Cu355   1.979   1_565  S
O348        C358   1.274       .  A
O349       Cu355   2.030   1_565  S
O349        C359   1.282       .  A
O350       Cu355   2.034       .  S
O350        C360   1.281       .  A
O351       Cu356   2.008       .  S
O351        C360   1.277       .  A
O352       Cu356   2.006   1_565  S
O352        C359   1.276       .  A
O353       Cu356   2.046   1_565  S
O353        C358   1.283       .  A
O354       Cu356   2.041       .  S
O354        C357   1.283       .  A
Cu355      Cu356   2.366       .  S
C357       C1071   1.486       .  S
C358       C1521   1.488       .  S
C359       C1328   1.488       .  S
C360       C1151   1.490       .  S
O361       Cu369   1.999   1_556  S
O361        C371   1.276       .  A
O362       Cu369   1.997       .  S
O362        C372   1.276       .  A
O363       Cu369   2.025       .  S
O363        C373   1.279       .  A
O364       Cu369   2.019   1_556  S
O364        C374   1.281       .  A
O365       Cu370   2.018   1_556  S
O365        C374   1.277       .  A
O366       Cu370   2.017       .  S
O366        C373   1.280       .  A
O367       Cu370   2.030       .  S
O367        C372   1.281       .  A
O368       Cu370   2.041   1_556  S
O368        C371   1.282       .  A
Cu369      Cu370   2.367       .  S
C371       C1531   1.490       .  S
C372       C1231   1.482       .  S
C373       C1108   1.491       .  S
C374       C1438   1.489       .  S
C375        C378   1.588       .  S
C375        C498   1.578       .  S
C375        C511   1.582       .  S
C375        C948   1.566       .  S
C376        C491   1.562       .  S
C376        C528   1.587       .  S
C376        C821   1.568       .  S
C376        C841   1.578       .  S
C377        C378   1.417       .  A
C377        C382   1.394       .  A
C377        H384   1.062       .  S
C378        C379   1.428       .  A
C379        C380   1.412       .  A
C379        F386   1.356       .  S
C380        C381   1.403       .  A
C380        H385   1.083       .  S
C381        C382   1.399       .  A
C382        F383   1.358       .  S
C387        C388   1.424       .  A
C387        C392   1.402       .  A
C387        H394   1.079       .  S
C388        C389   1.429       .  A
C389        C390   1.394       .  A
C389        F396   1.345       .  S
C390        C391   1.393       .  A
C390        H395   1.084       .  S
C391        C392   1.402       .  A
C392        F393   1.357       .  S
C397        C398   1.398       .  A
C397        C402   1.396       .  A
C397        H404   1.084       .  S
C398        C399   1.407       .  A
C399        C400   1.409       .  A
C399        F406   1.357       .  S
C400        C401   1.416       .  A
C400        H405   1.081       .  S
C401        C402   1.426       .  A
C402        F403   1.359       .  S
C407        C408   1.406       .  A
C407        C412   1.397       .  A
C407        H414   1.076       .  S
C408        C409   1.418       .  A
C409        C410   1.380       .  A
C409        F416   1.358       .  S
C410        C411   1.414       .  A
C410        H415   1.080       .  S
C411        C412   1.418       .  A
C412        F413   1.352       .  S
C417        C418   1.414       .  A
C417        C422   1.405       .  A
C417        H424   1.081       .  S
C418        C419   1.422       .  A
C419        C420   1.396       .  A
C419        F426   1.354       .  S
C420        C421   1.397       .  A
C420        H425   1.084       .  S
C421        C422   1.405       .  A
C422        F423   1.357       .  S
C427        C428   1.398       .  A
C427        C432   1.395       .  A
C427        H434   1.083       .  S
C428        C429   1.409       .  A
C429        C430   1.402       .  A
C429        F436   1.357       .  S
C430        C431   1.416       .  A
C430        H435   1.080       .  S
C431        C432   1.425       .  A
C432        F433   1.355       .  S
C437        C438   1.410       .  A
C437        C442   1.394       .  A
C437        H444   1.082       .  S
C438        C439   1.405       .  A
C439        C440   1.388       .  A
C439        F446   1.356       .  S
C440        C441   1.424       .  A
C440        H445   1.073       .  S
C441        C442   1.422       .  A
C442        F443   1.349       .  S
C447        C448   1.403       .  A
C447        C452   1.407       .  A
C447        H454   1.083       .  S
C448        C449   1.406       .  A
C449        C450   1.400       .  A
C449        F456   1.358       .  S
C450        C451   1.415       .  A
C450        H455   1.076       .  S
C451        C452   1.429       .  A
C452        F453   1.356       .  S
C457        C458   1.424       .  A
C457        C462   1.379       .  A
C457        H464   1.076       .  S
C458        C459   1.418       .  A
C459        C460   1.410       .  A
C459        F466   1.357       .  S
C460        C461   1.403       .  A
C460        H465   1.083       .  S
C461        C462   1.388       .  A
C462        F463   1.360       .  S
C467        C468   1.422       .  A
C467        C472   1.388       .  A
C467        H474   1.081       .  S
C468        C469   1.414       .  A
C469        C470   1.381       .  A
C469        F476   1.346       .  S
C470        C471   1.409       .  A
C470        H475   1.083       .  S
C471        C472   1.411       .  A
C472        F473   1.356       .  S
C477        C478   1.419       .  A
C477        C482   1.389       .  A
C477        H484   1.079       .  S
C478        C479   1.419       .  A
C479        C480   1.412       .  A
C479        F486   1.357       .  S
C480        C481   1.405       .  A
C480        H485   1.083       .  S
C481        C482   1.395       .  A
C482        F483   1.359       .  S
C487        C488   1.395       .  A
C487        C492   1.393       .  A
C487        H494   1.084       .  S
C488        C489   1.403       .  A
C489        C490   1.403       .  A
C489        F496   1.357       .  S
C490        C491   1.413       .  A
C490        H495   1.081       .  S
C491        C492   1.423       .  A
C492        F493   1.354       .  S
C497        C498   1.416       .  A
C497        C502   1.403       .  A
C497        H504   1.079       .  S
C498        C499   1.427       .  A
C499        C500   1.401       .  A
C499        F506   1.358       .  S
C500        C501   1.401       .  A
C500        H505   1.083       .  S
C501        C502   1.406       .  A
C502        F503   1.357       .  S
C507        C508   1.410       .  A
C507        C512   1.387       .  A
C507        H514   1.084       .  S
C508        C509   1.411       .  A
C509        C510   1.388       .  A
C509        F516   1.352       .  S
C510        C511   1.418       .  A
C510        H515   1.070       .  S
C511        C512   1.423       .  A
C512        F513   1.357       .  S
C517        C518   1.397       .  A
C517        C522   1.385       .  A
C517        H524   1.084       .  S
C518        C519   1.405       .  A
C519        C520   1.405       .  A
C519        F526   1.357       .  S
C520        C521   1.413       .  A
C520        H525   1.080       .  S
C521        C522   1.420       .  A
C522        F523   1.355       .  S
C527        C528   1.419       .  A
C527        C532   1.400       .  A
C527        H534   1.078       .  S
C528        C529   1.429       .  A
C529        C530   1.395       .  A
C529        F536   1.356       .  S
C530        C531   1.395       .  A
C530        H535   1.083       .  S
C531        C532   1.402       .  A
C532        F533   1.357       .  S
C537        C538   1.402       .  A
C537        C542   1.409       .  A
C537        H544   1.083       .  S
C538        C539   1.405       .  A
C539        C540   1.390       .  A
C539        F546   1.358       .  S
C540        C541   1.418       .  A
C540        H545   1.083       .  S
C541        C542   1.429       .  A
C542        F543   1.352       .  S
C547        C548   1.420       .  A
C547        C552   1.397       .  A
C547        H554   1.083       .  S
C548        C549   1.420       .  A
C549        C550   1.403       .  A
C549        F556   1.356       .  S
C550        C551   1.404       .  A
C550        H555   1.083       .  S
C551        C552   1.403       .  A
C552        F553   1.357       .  S
C557        C558   1.419       .  A
C557        C562   1.392       .  A
C557        H564   1.073       .  S
C558        C559   1.427       .  A
C559        C560   1.406       .  A
C559        F566   1.355       .  S
C560        C561   1.402       .  A
C560        H565   1.083       .  S
C561        C562   1.399       .  A
C562        F563   1.358       .  S
C567        C568   1.404       .  A
C567        C572   1.405       .  A
C567        H574   1.083       .  S
C568        C569   1.402       .  A
C569        C570   1.390       .  A
C569        F576   1.358       .  S
C570        C571   1.415       .  A
C570        H575   1.081       .  S
C571        C572   1.417       .  A
C572        F573   1.356       .  S
C577        C578   1.410       .  A
C577        C582   1.384       .  A
C577        H584   1.067       .  S
C578        C579   1.428       .  A
C579        C580   1.394       .  A
C579        F586   1.356       .  S
C580        C581   1.407       .  A
C580        H585   1.079       .  S
C581        C582   1.406       .  A
C582        F583   1.354       .  S
C587        C588   1.416       .  A
C587        C592   1.401       .  A
C587        H594   1.080       .  S
C588        C589   1.422       .  A
C589        C590   1.392       .  A
C589        F596   1.359       .  S
C590        C591   1.401       .  A
C590        H595   1.083       .  S
C591        C592   1.403       .  A
C592        F593   1.357       .  S
C597        C598   1.405       .  A
C597        C602   1.387       .  A
C597        H604   1.079       .  S
C598        C599   1.409       .  A
C599        C600   1.388       .  A
C599        F606   1.358       .  S
C600        C601   1.413       .  A
C600        H605   1.070       .  S
C601        C602   1.428       .  A
C602        F603   1.355       .  S
C607        C608   1.400       .  A
C607        C612   1.393       .  A
C607        H614   1.084       .  S
C608        C609   1.403       .  A
C609        C610   1.405       .  A
C609        F616   1.357       .  S
C610        C611   1.417       .  A
C610        H615   1.081       .  S
C611        C612   1.420       .  A
C612        F613   1.358       .  S
C617        C618   1.418       .  A
C617        C622   1.404       .  A
C617        H624   1.080       .  S
C618        C619   1.426       .  A
C619        C620   1.397       .  A
C619        F626   1.359       .  S
C620        C621   1.402       .  A
C620        H625   1.083       .  S
C621        C622   1.406       .  A
C622        F623   1.357       .  S
C627        C628   1.401       .  A
C627        C632   1.406       .  A
C627        H634   1.083       .  S
C628        C629   1.398       .  A
C629        C630   1.391       .  A
C629        F636   1.358       .  S
C630        C631   1.415       .  A
C630        H635   1.067       .  S
C631        C632   1.426       .  A
C632        F633   1.356       .  S
C637        C638   1.421       .  A
C637        C642   1.387       .  A
C637        H644   1.071       .  S
C638        C639   1.424       .  A
C639        C640   1.394       .  A
C639        F646   1.350       .  S
C640        C641   1.405       .  A
C640        H645   1.084       .  S
C641        C642   1.409       .  A
C642        F643   1.356       .  S
C647        C648   1.402       .  A
C647        C652   1.407       .  A
C647        H654   1.083       .  S
C648        C649   1.402       .  A
C649        C650   1.395       .  A
C649        F656   1.358       .  S
C650        C651   1.417       .  A
C650        H655   1.070       .  S
C651        C652   1.429       .  A
C652        F653   1.356       .  S
C657        C658   1.422       .  A
C657        C662   1.399       .  A
C657        H664   1.082       .  S
C658        C659   1.429       .  A
C659        C660   1.403       .  A
C659        F666   1.355       .  S
C660        C661   1.402       .  A
C660        H665   1.083       .  S
C661        C662   1.402       .  A
C662        F663   1.357       .  S
C667        C668   1.402       .  A
C667        C672   1.387       .  A
C667        H674   1.076       .  S
C668        C669   1.405       .  A
C669        C670   1.391       .  A
C669        F676   1.358       .  S
C670        C671   1.424       .  A
C670        H675   1.065       .  S
C671        C672   1.423       .  A
C672        F673   1.345       .  S
C677        C678   1.398       .  A
C677        C682   1.396       .  A
C677        H684   1.084       .  S
C678        C679   1.404       .  A
C679        C680   1.406       .  A
C679        F686   1.357       .  S
C680        C681   1.415       .  A
C680        H685   1.082       .  S
C681        C682   1.425       .  A
C682        F683   1.358       .  S
C687        C688   1.417       .  A
C687        C692   1.390       .  A
C687        H694   1.084       .  S
C688        C689   1.420       .  A
C689        C690   1.408       .  A
C689        F696   1.356       .  S
C690        C691   1.405       .  A
C690        H695   1.083       .  S
C691        C692   1.403       .  A
C692        F693   1.358       .  S
C697        C698   1.418       .  A
C697        C702   1.397       .  A
C697        H704   1.083       .  S
C698        C699   1.425       .  A
C699        C700   1.405       .  A
C699        F706   1.355       .  S
C700        C701   1.402       .  A
C700        H705   1.083       .  S
C701        C702   1.407       .  A
C702        F703   1.358       .  S
C707        C708   1.413       .  A
C707        C712   1.389       .  A
C707        H714   1.067       .  S
C708        C709   1.419       .  A
C709        C710   1.390       .  A
C709        F716   1.357       .  S
C710        C711   1.410       .  A
C710        H715   1.054       .  S
C711        C712   1.426       .  A
C712        F713   1.358       .  S
C717        C718   1.380       .  A
C717        C722   1.375       .  A
C717        H724   1.086       .  S
C718        C719   1.407       .  A
C719        C720   1.415       .  A
C719        F726   1.356       .  S
C720        C721   1.415       .  A
C720        H725   1.083       .  S
C721        C722   1.439       .  A
C722        F723   1.359       .  S
C727        C728   1.418       .  A
C727        C732   1.407       .  A
C727        H734   1.079       .  S
C728        C729   1.425       .  A
C729        C730   1.393       .  A
C729        F736   1.348       .  S
C730        C731   1.395       .  A
C730        H735   1.084       .  S
C731        C732   1.407       .  A
C732        F733   1.357       .  S
C737        C738   1.406       .  A
C737        C742   1.409       .  A
C737        H744   1.083       .  S
C738        C739   1.400       .  A
C739        C740   1.399       .  A
C739        F746   1.357       .  S
C740        C741   1.426       .  A
C740        H745   1.082       .  S
C741        C742   1.425       .  A
C742        F743   1.351       .  S
C747        C748   1.401       .  A
C747        C752   1.394       .  A
C747        H754   1.081       .  S
C748        C749   1.411       .  A
C749        C750   1.375       .  A
C749        F756   1.357       .  S
C750        C751   1.411       .  A
C750        H755   1.074       .  S
C751        C752   1.433       .  A
C752        F753   1.352       .  S
C757        C758   1.403       .  A
C757        C762   1.409       .  A
C757        H764   1.083       .  S
C758        C759   1.398       .  A
C759        C760   1.395       .  A
C759        F766   1.358       .  S
C760        C761   1.417       .  A
C760        H765   1.065       .  S
C761        C762   1.426       .  A
C762        F763   1.356       .  S
C767        C768   1.402       .  A
C767        C772   1.408       .  A
C767        H774   1.083       .  S
C768        C769   1.396       .  A
C769        C770   1.390       .  A
C769        F776   1.358       .  S
C770        C771   1.418       .  A
C770        H775   1.069       .  S
C771        C772   1.426       .  A
C772        F773   1.356       .  S
C777        C778   1.417       .  A
C777        C782   1.389       .  A
C777        H784   1.070       .  S
C778        C779   1.430       .  A
C779        C780   1.385       .  A
C779        F786   1.350       .  S
C780        C781   1.401       .  A
C780        H785   1.079       .  S
C781        C782   1.406       .  A
C782        F783   1.358       .  S
C787        C788   1.418       .  A
C787        C792   1.404       .  A
C787        H794   1.081       .  S
C788        C789   1.420       .  A
C789        C790   1.393       .  A
C789        F796   1.358       .  S
C790        C791   1.400       .  A
C790        H795   1.084       .  S
C791        C792   1.403       .  A
C792        F793   1.357       .  S
C797        C798   1.405       .  A
C797        C802   1.406       .  A
C797        H804   1.083       .  S
C798        C799   1.403       .  A
C799        C800   1.397       .  A
C799        F806   1.357       .  S
C800        C801   1.420       .  A
C800        H805   1.083       .  S
C801        C802   1.424       .  A
C802        F803   1.353       .  S
C807        C808   1.410       .  A
C807        C812   1.388       .  A
C807        H814   1.076       .  S
C808        C809   1.416       .  A
C809        C810   1.388       .  A
C809        F816   1.356       .  S
C810        C811   1.410       .  A
C810        H815   1.084       .  S
C811        C812   1.416       .  A
C812        F813   1.354       .  S
C817        C818   1.400       .  A
C817        C822   1.397       .  A
C817        H824   1.083       .  S
C818        C819   1.406       .  A
C819        C820   1.401       .  A
C819        F826   1.357       .  S
C820        C821   1.416       .  A
C820        H825   1.081       .  S
C821        C822   1.428       .  A
C822        F823   1.359       .  S
C827        C828   1.406       .  A
C827        C832   1.414       .  A
C827        H834   1.083       .  S
C828        C829   1.393       .  A
C829        C830   1.385       .  A
C829        F836   1.358       .  S
C830        C831   1.422       .  A
C830        H835   1.080       .  S
C831        C832   1.418       .  A
C832        F833   1.357       .  S
C837        C838   1.402       .  A
C837        C842   1.383       .  A
C837        H844   1.077       .  S
C838        C839   1.406       .  A
C839        C840   1.387       .  A
C839        F846   1.358       .  S
C840        C841   1.413       .  A
C840        H845   1.059       .  S
C841        C842   1.431       .  A
C842        F843   1.354       .  S
C847        C848   1.420       .  A
C847        C852   1.410       .  A
C847        H854   1.076       .  S
C848        C849   1.426       .  A
C849        C850   1.394       .  A
C849        F856   1.358       .  S
C850        C851   1.399       .  A
C850        H855   1.083       .  S
C851        C852   1.407       .  A
C852        F853   1.357       .  S
C857        C858   1.410       .  A
C857        C862   1.385       .  A
C857        H864   1.084       .  S
C858        C859   1.417       .  A
C859        C860   1.388       .  A
C859        F866   1.354       .  S
C860        C861   1.409       .  A
C860        H865   1.077       .  S
C861        C862   1.415       .  A
C862        F863   1.357       .  S
C867        C868   1.406       .  A
C867        C872   1.407       .  A
C867        H874   1.083       .  S
C868        C869   1.403       .  A
C869        C870   1.393       .  A
C869        F876   1.358       .  S
C870        C871   1.418       .  A
C870        H875   1.075       .  S
C871        C872   1.418       .  A
C872        F873   1.356       .  S
C877        C878   1.417       .  A
C877        C882   1.394       .  A
C877        H884   1.079       .  S
C878        C879   1.416       .  A
C879        C880   1.405       .  A
C879        F886   1.356       .  S
C880        C881   1.406       .  A
C880        H885   1.083       .  S
C881        C882   1.400       .  A
C882        F883   1.358       .  S
C887        C888   1.418       .  A
C887        C892   1.396       .  A
C887        H894   1.074       .  S
C888        C889   1.424       .  A
C889        C890   1.403       .  A
C889        F896   1.356       .  S
C890        C891   1.403       .  A
C890        H895   1.083       .  S
C891        C892   1.400       .  A
C892        F893   1.358       .  S
C897        C898   1.412       .  A
C897        C902   1.383       .  A
C897        H904   1.077       .  S
C898        C899   1.419       .  A
C899        C900   1.390       .  A
C899        F906   1.359       .  S
C900        C901   1.408       .  A
C900        H905   1.069       .  S
C901        C902   1.421       .  A
C902        F903   1.357       .  S
C907        C908   1.416       .  A
C907        C912   1.404       .  A
C907        H914   1.077       .  S
C908        C909   1.424       .  A
C909        C910   1.399       .  A
C909        F916   1.358       .  S
C910        C911   1.401       .  A
C910        H915   1.083       .  S
C911        C912   1.408       .  A
C912        F913   1.357       .  S
C917        C918   1.407       .  A
C917        C922   1.413       .  A
C917        H924   1.083       .  S
C918        C919   1.387       .  A
C919        C920   1.379       .  A
C919        F926   1.360       .  S
C920        C921   1.422       .  A
C920        H925   1.075       .  S
C921        C922   1.417       .  A
C922        F923   1.357       .  S
C927        C928   1.405       .  A
C927        C932   1.406       .  A
C927        H934   1.083       .  S
C928        C929   1.401       .  A
C929        C930   1.394       .  A
C929        F936   1.358       .  S
C930        C931   1.419       .  A
C930        H935   1.079       .  S
C931        C932   1.418       .  A
C932        F933   1.355       .  S
C937        C938   1.407       .  A
C937        C942   1.391       .  A
C937        H944   1.079       .  S
C938        C939   1.415       .  A
C939        C940   1.386       .  A
C939        F946   1.357       .  S
C940        C941   1.412       .  A
C940        H945   1.083       .  S
C941        C942   1.415       .  A
C942        F943   1.345       .  S
C947        C948   1.418       .  A
C947        C952   1.394       .  A
C947        H954   1.083       .  S
C948        C949   1.420       .  A
C949        C950   1.411       .  A
C949        F956   1.355       .  S
C950        C951   1.407       .  A
C950        H955   1.083       .  S
C951        C952   1.404       .  A
C952        F953   1.358       .  S
C957        C958   1.418       .  A
C957        C962   1.405       .  A
C957        H964   1.079       .  S
C958        C959   1.426       .  A
C959        C960   1.398       .  A
C959        F966   1.358       .  S
C960        C961   1.403       .  A
C960        H965   1.083       .  S
C961        C962   1.405       .  A
C962        F963   1.357       .  S
C967        C968   1.399       .  A
C967        C972   1.395       .  A
C967        H974   1.083       .  S
C968        C969   1.407       .  A
C969        C970   1.404       .  A
C969        F976   1.357       .  S
C970        C971   1.414       .  A
C970        H975   1.081       .  S
C971        C972   1.427       .  A
C972        F973   1.359       .  S
C977        C978   1.419       .  A
C977        C982   1.405       .  A
C977        H984   1.075       .  S
C978        C979   1.429       .  A
C979        C980   1.398       .  A
C979        F986   1.352       .  S
C980        C981   1.396       .  A
C980        H985   1.083       .  S
C981        C982   1.403       .  A
C982        F983   1.357       .  S
C987        C988   1.405       .  A
C987        C992   1.408       .  A
C987        H994   1.083       .  S
C988        C989   1.405       .  A
C989        C990   1.396       .  A
C989        F996   1.358       .  S
C990        C991   1.418       .  A
C990        H995   1.080       .  S
C991        C992   1.420       .  A
C992        F993   1.356       .  S
C997        C998   1.385       .  A
C997       C1002   1.381       .  A
C997       H1004   1.085       .  S
C998        C999   1.406       .  A
C999       C1000   1.412       .  A
C999       F1006   1.357       .  S
C1000      C1001   1.416       .  A
C1000      H1005   1.083       .  S
C1001      C1002   1.434       .  A
C1002      F1003   1.358       .  S
C1007      C1008   1.395       .  A
C1007      C1012   1.387       .  A
C1007      H1014   1.084       .  S
C1008      C1009   1.407       .  A
C1009      C1010   1.403       .  A
C1009      F1016   1.357       .  S
C1010      C1011   1.412       .  A
C1010      H1015   1.080       .  S
C1011      C1012   1.423       .  A
C1012      F1013   1.355       .  S
C1017      C1018   1.421       .  A
C1017      C1022   1.387       .  A
C1017      H1024   1.083       .  S
C1018      C1019   1.428       .  A
C1019      C1020   1.409       .  A
C1019      F1026   1.351       .  S
C1020      C1021   1.403       .  A
C1020      H1025   1.083       .  S
C1021      C1022   1.399       .  A
C1022      F1023   1.358       .  S
C1027      C1028   1.427       .  A
C1027      C1032   1.377       .  A
C1027      H1034   1.077       .  S
C1028      C1029   1.419       .  A
C1029      C1030   1.416       .  A
C1029      F1036   1.357       .  S
C1030      C1031   1.407       .  A
C1030      H1035   1.083       .  S
C1031      C1032   1.386       .  A
C1032      F1033   1.360       .  S
C1037      C1038   1.406       .  A
C1037      C1042   1.375       .  A
C1037      H1044   1.078       .  S
C1038      C1039   1.407       .  A
C1039      C1040   1.389       .  A
C1039      F1046   1.357       .  S
C1040      C1041   1.424       .  A
C1040      H1045   1.082       .  S
C1041      C1042   1.410       .  A
C1042      F1043   1.345       .  S
C1047      C1048   1.420       .  A
C1047      C1052   1.404       .  A
C1047      H1054   1.075       .  S
C1048      C1049   1.427       .  A
C1049      C1050   1.408       .  A
C1049      F1056   1.355       .  S
C1050      C1051   1.408       .  A
C1050      H1055   1.083       .  S
C1051      C1052   1.403       .  A
C1052      F1053   1.357       .  S
C1057      C1058   1.406       .  A
C1057      C1062   1.407       .  A
C1057      H1064   1.083       .  S
C1058      C1059   1.400       .  A
C1059      C1060   1.395       .  A
C1059      F1066   1.358       .  S
C1060      C1061   1.419       .  A
C1060      H1065   1.082       .  S
C1061      C1062   1.417       .  A
C1062      F1063   1.356       .  S
C1067      C1068   1.419       .  A
C1067      C1072   1.394       .  A
C1067      H1074   1.083       .  S
C1068      C1069   1.422       .  A
C1069      C1070   1.406       .  A
C1069      F1076   1.356       .  S
C1070      C1071   1.404       .  A
C1070      H1075   1.083       .  S
C1071      C1072   1.406       .  A
C1072      F1073   1.358       .  S
C1077      C1078   1.411       .  A
C1077      C1082   1.385       .  A
C1077      H1084   1.068       .  S
C1078      C1079   1.430       .  A
C1079      C1080   1.389       .  A
C1079      F1086   1.354       .  S
C1080      C1081   1.402       .  A
C1080      H1085   1.078       .  S
C1081      C1082   1.408       .  A
C1082      F1083   1.357       .  S
C1087      C1088   1.404       .  A
C1087      C1092   1.407       .  A
C1087      H1094   1.083       .  S
C1088      C1089   1.402       .  A
C1089      C1090   1.398       .  A
C1089      F1096   1.357       .  S
C1090      C1091   1.418       .  A
C1090      H1095   1.075       .  S
C1091      C1092   1.425       .  A
C1092      F1093   1.356       .  S
C1097      C1098   1.416       .  A
C1097      C1102   1.410       .  A
C1097      H1104   1.083       .  S
C1098      C1099   1.434       .  A
C1099      C1100   1.381       .  A
C1099      F1106   1.357       .  S
C1100      C1101   1.385       .  A
C1100      H1105   1.085       .  S
C1101      C1102   1.404       .  A
C1102      F1103   1.357       .  S
C1107      C1108   1.399       .  A
C1107      C1112   1.395       .  A
C1107      H1114   1.083       .  S
C1108      C1109   1.408       .  A
C1109      C1110   1.407       .  A
C1109      F1116   1.357       .  S
C1110      C1111   1.418       .  A
C1110      H1115   1.076       .  S
C1111      C1112   1.425       .  A
C1112      F1113   1.358       .  S
C1117      C1118   1.408       .  A
C1117      C1122   1.387       .  A
C1117      H1124   1.077       .  S
C1118      C1119   1.416       .  A
C1119      C1120   1.387       .  A
C1119      F1126   1.357       .  S
C1120      C1121   1.409       .  A
C1120      H1125   1.084       .  S
C1121      C1122   1.418       .  A
C1122      F1123   1.355       .  S
C1127      C1128   1.404       .  A
C1127      C1132   1.406       .  A
C1127      H1134   1.083       .  S
C1128      C1129   1.401       .  A
C1129      C1130   1.393       .  A
C1129      F1136   1.358       .  S
C1130      C1131   1.418       .  A
C1130      H1135   1.076       .  S
C1131      C1132   1.419       .  A
C1132      F1133   1.356       .  S
C1137      C1138   1.398       .  A
C1137      C1142   1.397       .  A
C1137      H1144   1.084       .  S
C1138      C1139   1.406       .  A
C1139      C1140   1.407       .  A
C1139      F1146   1.357       .  S
C1140      C1141   1.415       .  A
C1140      H1145   1.080       .  S
C1141      C1142   1.422       .  A
C1142      F1143   1.354       .  S
C1147      C1148   1.418       .  A
C1147      C1152   1.397       .  A
C1147      H1154   1.075       .  S
C1148      C1149   1.428       .  A
C1149      C1150   1.407       .  A
C1149      F1156   1.356       .  S
C1150      C1151   1.402       .  A
C1150      H1155   1.083       .  S
C1151      C1152   1.402       .  A
C1152      F1153   1.358       .  S
C1157      C1158   1.411       .  A
C1157      C1162   1.389       .  A
C1157      H1164   1.068       .  S
C1158      C1159   1.428       .  A
C1159      C1160   1.390       .  A
C1159      F1166   1.357       .  S
C1160      C1161   1.406       .  A
C1160      H1165   1.078       .  S
C1161      C1162   1.410       .  A
C1162      F1163   1.358       .  S
C1167      C1168   1.421       .  A
C1167      C1172   1.395       .  A
C1167      H1174   1.083       .  S
C1168      C1169   1.420       .  A
C1169      C1170   1.406       .  A
C1169      F1176   1.355       .  S
C1170      C1171   1.405       .  A
C1170      H1175   1.083       .  S
C1171      C1172   1.403       .  A
C1172      F1173   1.358       .  S
C1177      C1178   1.419       .  A
C1177      C1182   1.410       .  A
C1177      H1184   1.079       .  S
C1178      C1179   1.423       .  A
C1179      C1180   1.390       .  A
C1179      F1186   1.349       .  S
C1180      C1181   1.398       .  A
C1180      H1185   1.083       .  S
C1181      C1182   1.406       .  A
C1182      F1183   1.357       .  S
C1187      C1188   1.422       .  A
C1187      C1192   1.410       .  A
C1187      H1194   1.076       .  S
C1188      C1189   1.425       .  A
C1189      C1190   1.393       .  A
C1189      F1196   1.357       .  S
C1190      C1191   1.400       .  A
C1190      H1195   1.083       .  S
C1191      C1192   1.406       .  A
C1192      F1193   1.357       .  S
C1197      C1198   1.411       .  A
C1197      C1202   1.383       .  A
C1197      H1204   1.083       .  S
C1198      C1199   1.417       .  A
C1199      C1200   1.394       .  A
C1199      F1206   1.355       .  S
C1200      C1201   1.411       .  A
C1200      H1205   1.080       .  S
C1201      C1202   1.411       .  A
C1202      F1203   1.355       .  S
C1207      C1208   1.417       .  A
C1207      C1212   1.417       .  A
C1207      H1214   1.083       .  S
C1208      C1209   1.432       .  A
C1209      C1210   1.380       .  A
C1209      F1216   1.353       .  S
C1210      C1211   1.384       .  A
C1210      H1215   1.086       .  S
C1211      C1212   1.407       .  A
C1212      F1213   1.356       .  S
C1217      C1218   1.418       .  A
C1217      C1222   1.397       .  A
C1217      H1224   1.075       .  S
C1218      C1219   1.425       .  A
C1219      C1220   1.404       .  A
C1219      F1226   1.356       .  S
C1220      C1221   1.403       .  A
C1220      H1225   1.083       .  S
C1221      C1222   1.402       .  A
C1222      F1223   1.357       .  S
C1227      C1228   1.420       .  A
C1227      C1232   1.392       .  A
C1227      H1234   1.083       .  S
C1228      C1229   1.421       .  A
C1229      C1230   1.406       .  A
C1229      F1236   1.356       .  S
C1230      C1231   1.405       .  A
C1230      H1235   1.083       .  S
C1231      C1232   1.403       .  A
C1232      F1233   1.358       .  S
C1237      C1238   1.414       .  A
C1237      C1242   1.388       .  A
C1237      H1244   1.067       .  S
C1238      C1239   1.428       .  A
C1239      C1240   1.383       .  A
C1239      F1246   1.356       .  S
C1240      C1241   1.404       .  A
C1240      H1245   1.079       .  S
C1241      C1242   1.408       .  A
C1242      F1243   1.358       .  S
C1247      C1248   1.417       .  A
C1247      C1252   1.390       .  A
C1247      H1254   1.080       .  S
C1248      C1249   1.416       .  A
C1249      C1250   1.405       .  A
C1249      F1256   1.356       .  S
C1250      C1251   1.404       .  A
C1250      H1255   1.083       .  S
C1251      C1252   1.399       .  A
C1252      F1253   1.358       .  S
C1257      C1258   1.418       .  A
C1257      C1262   1.395       .  A
C1257      H1264   1.079       .  S
C1258      C1259   1.417       .  A
C1259      C1260   1.406       .  A
C1259      F1266   1.356       .  S
C1260      C1261   1.406       .  A
C1260      H1265   1.083       .  S
C1261      C1262   1.402       .  A
C1262      F1263   1.358       .  S
C1267      C1268   1.423       .  A
C1267      C1272   1.380       .  A
C1267      H1274   1.080       .  S
C1268      C1269   1.416       .  A
C1269      C1270   1.412       .  A
C1269      F1276   1.357       .  S
C1270      C1271   1.405       .  A
C1270      H1275   1.083       .  S
C1271      C1272   1.389       .  A
C1272      F1273   1.359       .  S
C1277      C1278   1.412       .  A
C1277      C1282   1.383       .  A
C1277      H1284   1.083       .  S
C1278      C1279   1.413       .  A
C1279      C1280   1.389       .  A
C1279      F1286   1.355       .  S
C1280      C1281   1.412       .  A
C1280      H1285   1.077       .  S
C1281      C1282   1.411       .  A
C1282      F1283   1.357       .  S
C1287      C1288   1.418       .  A
C1287      C1292   1.406       .  A
C1287      H1294   1.077       .  S
C1288      C1289   1.423       .  A
C1289      C1290   1.396       .  A
C1289      F1296   1.357       .  S
C1290      C1291   1.401       .  A
C1290      H1295   1.083       .  S
C1291      C1292   1.407       .  A
C1292      F1293   1.357       .  S
C1297      C1298   1.417       .  A
C1297      C1302   1.415       .  A
C1297      H1304   1.082       .  S
C1298      C1299   1.434       .  A
C1299      C1300   1.384       .  A
C1299      F1306   1.357       .  S
C1300      C1301   1.387       .  A
C1300      H1305   1.085       .  S
C1301      C1302   1.407       .  A
C1302      F1303   1.357       .  S
C1307      C1308   1.406       .  A
C1307      C1312   1.385       .  A
C1307      H1314   1.077       .  S
C1308      C1309   1.418       .  A
C1309      C1310   1.389       .  A
C1309      F1316   1.357       .  S
C1310      C1311   1.410       .  A
C1310      H1315   1.083       .  S
C1311      C1312   1.414       .  A
C1312      F1313   1.346       .  S
C1317      C1318   1.404       .  A
C1317      C1322   1.408       .  A
C1317      H1324   1.083       .  S
C1318      C1319   1.405       .  A
C1319      C1320   1.396       .  A
C1319      F1326   1.358       .  S
C1320      C1321   1.415       .  A
C1320      H1325   1.076       .  S
C1321      C1322   1.422       .  A
C1322      F1323   1.356       .  S
C1327      C1328   1.396       .  A
C1327      C1332   1.395       .  A
C1327      H1334   1.083       .  S
C1328      C1329   1.409       .  A
C1329      C1330   1.405       .  A
C1329      F1336   1.358       .  S
C1330      C1331   1.416       .  A
C1330      H1335   1.076       .  S
C1331      C1332   1.428       .  A
C1332      F1333   1.358       .  S
C1337      C1338   1.416       .  A
C1337      C1342   1.402       .  A
C1337      H1344   1.074       .  S
C1338      C1339   1.428       .  A
C1339      C1340   1.396       .  A
C1339      F1346   1.358       .  S
C1340      C1341   1.398       .  A
C1340      H1345   1.083       .  S
C1341      C1342   1.407       .  A
C1342      F1343   1.358       .  S
C1347      C1348   1.418       .  A
C1347      C1352   1.417       .  A
C1347      H1354   1.083       .  S
C1348      C1349   1.430       .  A
C1349      C1350   1.386       .  A
C1349      F1356   1.353       .  S
C1350      C1351   1.387       .  A
C1350      H1355   1.085       .  S
C1351      C1352   1.407       .  A
C1352      F1353   1.356       .  S
C1357      C1358   1.410       .  A
C1357      C1362   1.390       .  A
C1357      H1364   1.064       .  S
C1358      C1359   1.435       .  A
C1359      C1360   1.390       .  A
C1359      F1366   1.356       .  S
C1360      C1361   1.402       .  A
C1360      H1365   1.077       .  S
C1361      C1362   1.415       .  A
C1362      F1363   1.356       .  S
C1367      C1368   1.405       .  A
C1367      C1372   1.407       .  A
C1367      H1374   1.083       .  S
C1368      C1369   1.403       .  A
C1369      C1370   1.395       .  A
C1369      F1376   1.358       .  S
C1370      C1371   1.417       .  A
C1370      H1375   1.075       .  S
C1371      C1372   1.421       .  A
C1372      F1373   1.356       .  S
C1377      C1378   1.415       .  A
C1377      C1382   1.406       .  A
C1377      H1384   1.078       .  S
C1378      C1379   1.426       .  A
C1379      C1380   1.396       .  A
C1379      F1386   1.357       .  S
C1380      C1381   1.398       .  A
C1380      H1385   1.083       .  S
C1381      C1382   1.409       .  A
C1382      F1383   1.357       .  S
C1387      C1388   1.408       .  A
C1387      C1392   1.416       .  A
C1387      H1394   1.083       .  S
C1388      C1389   1.390       .  A
C1389      C1390   1.384       .  A
C1389      F1396   1.359       .  S
C1390      C1391   1.421       .  A
C1390      H1395   1.076       .  S
C1391      C1392   1.417       .  A
C1392      F1393   1.357       .  S
C1397      C1398   1.415       .  A
C1397      C1402   1.385       .  A
C1397      H1404   1.084       .  S
C1398      C1399   1.415       .  A
C1399      C1400   1.389       .  A
C1399      F1406   1.348       .  S
C1400      C1401   1.409       .  A
C1400      H1405   1.079       .  S
C1401      C1402   1.415       .  A
C1402      F1403   1.357       .  S
C1407      C1408   1.418       .  A
C1407      C1412   1.395       .  A
C1407      H1414   1.078       .  S
C1408      C1409   1.417       .  A
C1409      C1410   1.405       .  A
C1409      F1416   1.356       .  S
C1410      C1411   1.406       .  A
C1410      H1415   1.083       .  S
C1411      C1412   1.402       .  A
C1412      F1413   1.358       .  S
C1417      C1418   1.416       .  A
C1417      C1422   1.407       .  A
C1417      H1424   1.080       .  S
C1418      C1419   1.422       .  A
C1419      C1420   1.388       .  A
C1419      F1426   1.351       .  S
C1420      C1421   1.396       .  A
C1420      H1425   1.084       .  S
C1421      C1422   1.406       .  A
C1422      F1423   1.357       .  S
C1427      C1428   1.410       .  A
C1427      C1432   1.389       .  A
C1427      H1434   1.080       .  S
C1428      C1429   1.416       .  A
C1429      C1430   1.383       .  A
C1429      F1436   1.357       .  S
C1430      C1431   1.409       .  A
C1430      H1435   1.083       .  S
C1431      C1432   1.417       .  A
C1432      F1433   1.356       .  S
C1437      C1438   1.395       .  A
C1437      C1442   1.390       .  A
C1437      H1444   1.083       .  S
C1438      C1439   1.410       .  A
C1439      C1440   1.409       .  A
C1439      F1446   1.357       .  S
C1440      C1441   1.416       .  A
C1440      H1445   1.079       .  S
C1441      C1442   1.428       .  A
C1442      F1443   1.357       .  S
C1447      C1448   1.410       .  A
C1447      C1452   1.420       .  A
C1447      H1454   1.083       .  S
C1448      C1449   1.386       .  A
C1449      C1450   1.379       .  A
C1449      F1456   1.360       .  S
C1450      C1451   1.420       .  A
C1450      H1455   1.070       .  S
C1451      C1452   1.418       .  A
C1452      F1453   1.357       .  S
C1457      C1458   1.418       .  A
C1457      C1462   1.403       .  A
C1457      H1464   1.074       .  S
C1458      C1459   1.427       .  A
C1459      C1460   1.393       .  A
C1459      F1466   1.358       .  S
C1460      C1461   1.397       .  A
C1460      H1465   1.083       .  S
C1461      C1462   1.405       .  A
C1462      F1463   1.357       .  S
C1467      C1468   1.418       .  A
C1467      C1472   1.395       .  A
C1467      H1474   1.075       .  S
C1468      C1469   1.420       .  A
C1469      C1470   1.407       .  A
C1469      F1476   1.355       .  S
C1470      C1471   1.404       .  A
C1470      H1475   1.083       .  S
C1471      C1472   1.405       .  A
C1472      F1473   1.358       .  S
C1477      C1478   1.416       .  A
C1477      C1482   1.380       .  A
C1477      H1484   1.077       .  S
C1478      C1479   1.413       .  A
C1479      C1480   1.391       .  A
C1479      F1486   1.354       .  S
C1480      C1481   1.416       .  A
C1480      H1485   1.082       .  S
C1481      C1482   1.406       .  A
C1482      F1483   1.352       .  S
C1487      C1488   1.416       .  A
C1487      C1492   1.414       .  A
C1487      H1494   1.083       .  S
C1488      C1489   1.432       .  A
C1489      C1490   1.380       .  A
C1489      F1496   1.354       .  S
C1490      C1491   1.384       .  A
C1490      H1495   1.085       .  S
C1491      C1492   1.406       .  A
C1492      F1493   1.356       .  S
C1497      C1498   1.421       .  A
C1497      C1502   1.391       .  A
C1497      H1504   1.082       .  S
C1498      C1499   1.415       .  A
C1499      C1500   1.407       .  A
C1499      F1506   1.357       .  S
C1500      C1501   1.404       .  A
C1500      H1505   1.083       .  S
C1501      C1502   1.396       .  A
C1502      F1503   1.358       .  S
C1507      C1508   1.421       .  A
C1507      C1512   1.383       .  A
C1507      H1514   1.070       .  S
C1508      C1509   1.424       .  A
C1509      C1510   1.388       .  A
C1509      F1516   1.344       .  S
C1510      C1511   1.402       .  A
C1510      H1515   1.084       .  S
C1511      C1512   1.408       .  A
C1512      F1513   1.356       .  S
C1517      C1518   1.420       .  A
C1517      C1522   1.391       .  A
C1517      H1524   1.082       .  S
C1518      C1519   1.428       .  A
C1519      C1520   1.407       .  A
C1519      F1526   1.355       .  S
C1520      C1521   1.402       .  A
C1520      H1525   1.083       .  S
C1521      C1522   1.405       .  A
C1522      F1523   1.358       .  S
C1527      C1528   1.420       .  A
C1527      C1532   1.405       .  A
C1527      H1534   1.076       .  S
C1528      C1529   1.424       .  A
C1529      C1530   1.399       .  A
C1529      F1536   1.354       .  S
C1530      C1531   1.401       .  A
C1530      H1535   1.083       .  S
C1531      C1532   1.402       .  A
C1532      F1533   1.357       .  S
C1537      C1538   1.413       .  A
C1537      C1542   1.404       .  A
C1537      H1544   1.080       .  S
C1538      C1539   1.423       .  A
C1539      C1540   1.391       .  A
C1539      F1546   1.353       .  S
C1540      C1541   1.396       .  A
C1540      H1545   1.083       .  S
C1541      C1542   1.407       .  A
C1542      F1543   1.357       .  S
C1547      C1548   1.418       .  A
C1547      C1552   1.396       .  A
C1547      H1554   1.071       .  S
C1548      C1549   1.430       .  A
C1549      C1550   1.405       .  A
C1549      F1556   1.356       .  S
C1550      C1551   1.400       .  A
C1550      H1555   1.083       .  S
C1551      C1552   1.401       .  A
C1552      F1553   1.358       .  S
C1557      C1558   1.412       .  A
C1557      C1562   1.389       .  A
C1557      H1564   1.067       .  S
C1558      C1559   1.430       .  A
C1559      C1560   1.384       .  A
C1559      F1566   1.356       .  S
C1560      C1561   1.403       .  A
C1560      H1565   1.079       .  S
C1561      C1562   1.409       .  A
C1562      F1563   1.357       .  S
C1567      C1568   1.421       .  A
C1567      C1572   1.393       .  A
C1567      H1574   1.084       .  S
C1568      C1569   1.417       .  A
C1569      C1570   1.404       .  A
C1569      F1576   1.356       .  S
C1570      C1571   1.405       .  A
C1570      H1575   1.083       .  S
C1571      C1572   1.402       .  A
C1572      F1573   1.358       .  S
C1577      C1578   1.420       .  A
C1577      C1582   1.419       .  A
C1577      H1584   1.083       .  S
C1578      C1579   1.437       .  A
C1579      C1580   1.381       .  A
C1579      F1586   1.350       .  S
C1580      C1581   1.382       .  A
C1580      H1585   1.086       .  S
C1581      C1582   1.407       .  A
C1582      F1583   1.356       .  S
C1587      C1588   1.418       .  A
C1587      C1592   1.390       .  A
C1587      H1594   1.082       .  S
C1588      C1589   1.411       .  A
C1589      C1590   1.380       .  A
C1589      F1596   1.347       .  S
C1590      C1591   1.403       .  A
C1590      H1595   1.081       .  S
C1591      C1592   1.413       .  A
C1592      F1593   1.351       .  S
C1597      C1598   1.420       .  A
C1597      C1602   1.412       .  A
C1597      H1604   1.077       .  S
C1598      C1599   1.427       .  A
C1599      C1600   1.395       .  A
C1599      F1606   1.359       .  S
C1600      C1601   1.399       .  A
C1600      H1605   1.083       .  S
C1601      C1602   1.409       .  A
C1602      F1603   1.357       .  S
C1607      C1608   1.420       .  A
C1607      C1612   1.410       .  A
C1607      H1614   1.081       .  S
C1608      C1609   1.418       .  A
C1609      C1610   1.405       .  A
C1609      F1616   1.355       .  S
C1610      C1611   1.404       .  A
C1610      H1615   1.083       .  S
C1611      C1612   1.412       .  A
C1612      F1613   1.357       .  S
C1617      C1618   1.423       .  A
C1617      C1622   1.394       .  A
C1617      H1624   1.082       .  S
C1618      C1619   1.428       .  A
C1619      C1620   1.403       .  A
C1619      F1626   1.355       .  S
C1620      C1621   1.402       .  A
C1620      H1625   1.083       .  S
C1621      C1622   1.401       .  A
C1622      F1623   1.357       .  S
C1627      C1628   1.422       .  A
C1627      C1632   1.384       .  A
C1627      H1634   1.069       .  S
C1628      C1629   1.425       .  A
C1629      C1630   1.393       .  A
C1629      F1636   1.345       .  S
C1630      C1631   1.403       .  A
C1630      H1635   1.084       .  S
C1631      C1632   1.406       .  A
C1632      F1633   1.357       .  S
C1637      C1638   1.416       .  A
C1637      C1642   1.401       .  A
C1637      H1644   1.076       .  S
C1638      C1639   1.423       .  A
C1639      C1640   1.398       .  A
C1639      F1646   1.356       .  S
C1640      C1641   1.399       .  A
C1640      H1645   1.083       .  S
C1641      C1642   1.404       .  A
C1642      F1643   1.357       .  S
C1647      C1648   1.416       .  A
C1647      C1652   1.404       .  A
C1647      H1654   1.082       .  S
C1648      C1649   1.424       .  A
C1649      C1650   1.392       .  A
C1649      F1656   1.357       .  S
C1650      C1651   1.395       .  A
C1650      H1655   1.084       .  S
C1651      C1652   1.402       .  A
C1652      F1653   1.357       .  S
