geometry optimzed in LAMMPS
_audit_creation_date              2020-11-30 
_audit_creation_method            'lammps2cif' 
_symmetry_space_group_name_H-M    'P1' 
_symmetry_Int_Tables_number       1 
_symmetry_cell_setting            triclinic 
loop_ 
_symmetry_equiv_pos_as_xyz 
  x,y,z 
_cell_length_a                    29.14808099 
_cell_length_b                    32.59220020164476 
_cell_length_c                    37.66277816773591 
_cell_angle_alpha                 88.88911619608507 
_cell_angle_beta                  89.91775960544014 
_cell_angle_gamma                 90.0187846803581 
loop_ 
_atom_site_label 
_atom_site_type_symbol 
_atom_site_fract_x 
_atom_site_fract_y 
_atom_site_fract_z 
_atom_site_charge 
C1          C  0.47399948  0.54405885  0.48979065     0.02900
C2          C  0.52236258  0.54258263  0.49225941     0.02900
C3          C  0.54397278  0.50493426  0.99496438    -0.17600
C4          C  0.51945110  0.46793578  0.99388725     0.02900
C5          C  0.47145076  0.46891450  0.98909184     0.02900
C6          C  0.44912783  0.50705422  0.48904952    -0.17600
H7          H  0.41207349  0.50806131  0.48667909     0.04900
H8          H  0.58104205  0.50404868  0.99737928     0.04900
C9          C  0.02286424  0.97183931  0.48510382     0.02900
C10         C  0.97413670  0.97046671  0.48508228     0.02900
C11         C  0.94988775  0.00750224  0.48888387    -0.17600
C12         C  0.97186679  0.04579006  0.48871803     0.02900
C13         C  0.01991269  0.04722667  0.48477363     0.02900
C14         C  0.04457786  0.01034262  0.48384658    -0.17600
H15         H  0.08172390  0.01168646  0.48216751     0.04900
H16         H  0.91279541  0.00665313  0.49115713     0.04900
O17         O  0.33626375  0.31062815  0.01516959    -0.77900
C18         C  0.20094688  0.30593301  0.06038454     0.83200
O19         O  0.29457223  0.16372845  0.03395503    -0.79000
O20         O  0.14789016  0.21277413  0.49104569    -0.80500
O21         O  0.23746396  0.29606041  0.41128369    -0.80200
O22         O  0.33478998  0.31528169  0.45686093    -0.78900
Zn23       Zn  0.28804744  0.26840814  0.02948132     1.55700
O24         O  0.17333805  0.29612382  0.44378774    -0.80300
Cd25       Cd  0.28630122  0.27067208  0.44472904     1.59700
Cd26       Cd  0.26128646  0.18547682  0.48762995     1.59600
O27         O  0.31703371  0.22485079  0.41620572    -0.80300
O28         O  0.25661563  0.24704735  0.48832881    -1.90800
Cd29       Cd  0.19052056  0.26368847  0.48931096     1.59900
O30         O  0.29848892  0.16598527  0.44338504    -0.80200
O31         O  0.17664965  0.29812425  0.03329541    -0.78900
C32         C  0.31454832  0.18310628  0.05871958     0.83700
C33         C  0.35002417  0.32707591  0.48675257     0.83300
O34         O  0.24310214  0.29590897  0.06226611    -0.77800
C35         C  0.19507149  0.30434671  0.41516939     0.84100
O36         O  0.31568227  0.22225246  0.05844675    -0.77900
C37         C  0.31825381  0.18579405  0.41804403     0.84300
C38         C  0.15541337  0.17454784  0.48773950     0.84600
O39         O  0.19586690  0.15987237  0.48511167    -0.80300
O40         O  0.75497245  0.29434188  0.06041827    -0.77900
C41         C  0.64051624  0.32656033  0.48872294     0.83200
O42         O  0.69148171  0.16503495  0.03428346    -0.79000
O43         O  0.66767114  0.22345549  0.41870797    -0.80500
O44         O  0.81341216  0.29600712  0.43853013    -0.80200
O45         O  0.81889132  0.29399822  0.02780680    -0.78900
Zn46       Zn  0.70585058  0.26925646  0.02995524     1.55700
O47         O  0.74721725  0.29505376  0.40884519    -0.80300
Cd48       Cd  0.79977034  0.26178357  0.48384664     1.59700
Cd49       Cd  0.72771383  0.18469648  0.48850805     1.59600
O50         O  0.84129117  0.20996595  0.48264688    -0.80300
O51         O  0.73349574  0.24624104  0.48730012    -1.90800
Cd52       Cd  0.70122164  0.26929018  0.44486526     1.59900
O53         O  0.79247457  0.15761406  0.49000441    -0.80200
O54         O  0.65375161  0.31331914  0.45880804    -0.78900
C55         C  0.67420025  0.18555044  0.05953623     0.83700
C56         C  0.79740076  0.30244417  0.05615954     0.83300
O57         O  0.65747652  0.31253259  0.01790446    -0.77800
C58         C  0.78962406  0.30416464  0.41097703     0.84100
O59         O  0.67707486  0.22457306  0.05979922    -0.77900
C60         C  0.83314934  0.17170979  0.48655894     0.84300
C61         C  0.66883477  0.18439428  0.42015675     0.84600
O62         O  0.69186898  0.16472272  0.44379742    -0.80300
O63         O  0.67214412  0.68885764  0.01697754    -0.77900
C64         C  0.81055660  0.70237554  0.06438653     0.83200
O65         O  0.70331469  0.83431334  0.02635025    -0.79000
O66         O  0.85667572  0.79725323  0.48900032    -0.80500
O67         O  0.77827017  0.69723191  0.41664661    -0.80200
O68         O  0.67617699  0.68264630  0.45814527    -0.78900
Zn69       Zn  0.72164211  0.72995674  0.02924687     1.55700
O70         O  0.84091746  0.70840340  0.44913457    -0.80300
Cd71       Cd  0.72606498  0.72547744  0.44445437     1.59700
Cd72       Cd  0.74115922  0.81421968  0.48238107     1.59600
O73         O  0.69402448  0.76748432  0.41081303    -0.80300
O74         O  0.75141710  0.75328148  0.48713612    -1.90800
Cd75       Cd  0.81888134  0.74348097  0.49093288     1.59900
O76         O  0.70454921  0.82823924  0.43591739    -0.80200
O77         O  0.83506562  0.71644174  0.03893545    -0.78900
C78         C  0.68697546  0.81396610  0.05280691     0.83700
C79         C  0.65776810  0.67300749  0.48788283     0.83300
O80         O  0.76690296  0.70343140  0.06356169    -0.77800
C81         C  0.82131434  0.69361715  0.42193217     0.84100
O82         O  0.69198764  0.77522734  0.05566133    -0.77900
C83         C  0.68838227  0.80626577  0.41112445     0.84300
C84         C  0.84560612  0.83472222  0.48429177     0.84600
O85         O  0.80375828  0.84570782  0.48050442    -0.80300
O86         O  0.23076910  0.71120245  0.05337714    -0.77900
C87         C  0.35018649  0.68383107  0.48528689     0.83200
O88         O  0.30146117  0.84174745  0.02852669    -0.79000
O89         O  0.31860301  0.78741959  0.41132132    -0.80500
O90         O  0.17486754  0.72149724  0.43294273    -0.80200
O91         O  0.16625633  0.72269022  0.02294809    -0.78900
Zn92       Zn  0.28185196  0.73864429  0.02487831     1.55700
O93         O  0.24318681  0.71148718  0.40759985    -0.80300
Cd94       Cd  0.18912433  0.75365968  0.47822637     1.59700
Cd95       Cd  0.26549514  0.82586153  0.48296106     1.59600
O96         O  0.15078007  0.80692159  0.47536680    -0.80300
O97         O  0.25647994  0.76465129  0.48246864    -1.90800
Cd98       Cd  0.28850532  0.74100076  0.44066059     1.59900
O99         O  0.20233011  0.85627834  0.48391553    -0.80200
O100        O  0.33879780  0.69897017  0.45511628    -0.78900
C101        C  0.31624699  0.82046286  0.05492213     0.83700
C102        C  0.18732443  0.70834167  0.05009553     0.83300
O103        O  0.33086699  0.69588893  0.01297474    -0.77800
C104        C  0.19975869  0.70745531  0.40816507     0.84100
O105        O  0.31087729  0.78155038  0.05627524    -0.77900
C106        C  0.16092938  0.84446472  0.47963933     0.84300
C107        C  0.32120794  0.82637779  0.41296403     0.84600
O108        O  0.30258644  0.84605864  0.43821707    -0.80300
N109        N  0.99967980  0.35867395  0.17987314    -0.36000
N110        N  0.06620632  0.35895246  0.23605002    -0.56500
N111        N  0.99335195  0.35525581  0.28894397    -0.36000
N112        N  0.92691909  0.35427794  0.23279732    -0.56500
C113        C  0.03834800  0.34757028  0.16263075     0.27600
C114        C  0.96391400  0.34468007  0.16076380     0.27600
C115        C  0.03018287  0.34314735  0.30824082     0.27600
C116        C  0.95558434  0.34166867  0.30652995     0.27600
C117        C  0.09446150  0.36686941  0.20831200     0.36200
C118        C  0.09099684  0.36484357  0.26570987     0.36200
C119        C  0.90164408  0.36009483  0.20318754     0.36200
C120        C  0.89806693  0.35872846  0.26051740     0.36200
C121        C  0.02693315  0.32634816  0.13229526    -0.21200
C122        C  0.97992449  0.32471830  0.13102907    -0.21200
C123        C  0.01562144  0.32183107  0.33847788    -0.21200
C124        C  0.96852437  0.32102971  0.33744736    -0.21200
C125        C  0.13723008  0.37881274  0.22033179    -0.22300
C126        C  0.13502923  0.37755290  0.25683180    -0.22300
C127        C  0.85661773  0.36901381  0.21206210    -0.22300
C128        C  0.85437537  0.36827301  0.24853223    -0.22300
C129        C  0.08357971  0.35750540  0.17291742    -0.17700
C130        C  0.91717056  0.35065491  0.16888319    -0.17700
C131        C  0.90971157  0.34859175  0.29589881    -0.17600
C132        C  0.07646394  0.35231979  0.29998290    -0.17600
H133        H  0.05002786  0.31322926  0.11306712     0.15300
H134        H  0.95984725  0.31019768  0.11063770     0.15300
H135        H  0.03668859  0.30813766  0.35916319     0.15300
H136        H  0.94636722  0.30657863  0.35710056     0.15300
H137        H  0.16736319  0.38579950  0.20451346     0.13500
H138        H  0.16321038  0.38323827  0.27476463     0.13500
H139        H  0.82801506  0.37359918  0.19412694     0.13500
H140        H  0.82373155  0.37227025  0.26435002     0.13500
H141        H  0.99764430  0.37800766  0.20153208     0.26800
H142        H  0.99387220  0.37503685  0.26689710     0.26800
N143        N  0.00451148  0.63117938  0.18456539    -0.36000
N144        N  0.93706696  0.62874655  0.24213574    -0.56500
N145        N  0.01424456  0.62817142  0.28989250    -0.36000
N146        N  0.08216032  0.62651763  0.23247380    -0.56500
C147        C  0.96501219  0.62680583  0.16625924     0.27600
C148        C  0.03947442  0.62580315  0.16145583     0.27600
C149        C  0.97909321  0.62037560  0.31253600     0.27600
C150        C  0.05357513  0.62013090  0.30762853     0.27600
C151        C  0.90974790  0.64095688  0.21500700     0.36200
C152        C  0.91502050  0.63891003  0.27233076     0.36200
C153        C  0.10420752  0.63872509  0.20245698     0.36200
C154        C  0.10931254  0.63739323  0.25977019     0.36200
C155        C  0.97501942  0.61753126  0.13129803    -0.21200
C156        C  0.02202338  0.61677248  0.12830703    -0.21200
C157        C  0.99624808  0.60605804  0.34476620    -0.21200
C158        C  0.04333402  0.60631602  0.34178424    -0.21200
C159        C  0.86925361  0.65719355  0.22795552    -0.22300
C160        C  0.87271289  0.65618612  0.26431673    -0.22300
C161        C  0.14650209  0.65548881  0.21066397    -0.22300
C162        C  0.14976271  0.65460155  0.24705674    -0.22300
C163        C  0.92109086  0.63804111  0.17870406    -0.17700
C164        C  0.08569644  0.63635512  0.16789939    -0.17700
C165        C  0.09741487  0.63301116  0.29600845    -0.17600
C166        C  0.93330334  0.63325077  0.30684526    -0.17600
H167        H  0.95101025  0.61396734  0.10968988     0.15300
H168        H  0.04120334  0.61259995  0.10400708     0.15300
H169        H  0.97691843  0.59893323  0.36866376     0.15300
H170        H  0.06728098  0.59928870  0.36295883     0.15300
H171        H  0.84067872  0.66942039  0.21278931     0.13500
H172        H  0.84735219  0.66780584  0.28253739     0.13500
H173        H  0.17175246  0.66817175  0.19243864     0.13500
H174        H  0.17810200  0.66628314  0.26241617     0.13500
H175        H  0.00726345  0.64473035  0.20905781     0.26800
H176        H  0.01209912  0.64579450  0.26676813     0.26800
N177        N  0.50298170  0.89758620  0.17956652    -0.36000
N178        N  0.57732668  0.89430100  0.23188667    -0.56500
N179        N  0.50637465  0.90078634  0.28464646    -0.36000
N180        N  0.43180577  0.90670611  0.23256898    -0.56500
C181        C  0.54042598  0.90159032  0.15858369     0.27600
C182        C  0.46571998  0.90494756  0.15905149     0.27600
C183        C  0.54446365  0.90283180  0.30495098     0.27600
C184        C  0.47047012  0.91182751  0.30500083     0.27600
C185        C  0.59952265  0.88055481  0.20295999     0.36200
C186        C  0.60054350  0.87950790  0.26045866     0.36200
C187        C  0.40592977  0.89412237  0.20500814     0.36200
C188        C  0.40775349  0.89747604  0.26240335     0.36200
C189        C  0.52684796  0.91292164  0.12449289    -0.21200
C190        C  0.47968729  0.91483746  0.12475177    -0.21200
C191        C  0.53296913  0.91674780  0.33832105    -0.21200
C192        C  0.48617311  0.92253747  0.33833692    -0.21200
C193        C  0.63825049  0.85860423  0.21315755    -0.22300
C194        C  0.63874628  0.85776304  0.24967991    -0.22300
C195        C  0.36422936  0.87908092  0.21724550    -0.22300
C196        C  0.36545068  0.88106015  0.25367479    -0.22300
C197        C  0.58457388  0.88677470  0.16755492    -0.17700
C198        C  0.42030880  0.89491690  0.16909051    -0.17700
C199        C  0.42447408  0.90178660  0.29738928    -0.17600
C200        C  0.58697730  0.88505839  0.29605540    -0.17600
H201        H  0.54844169  0.91658773  0.10125101     0.15300
H202        H  0.45818427  0.92048879  0.10179482     0.15300
H203        H  0.55549153  0.91964824  0.36096270     0.15300
H204        H  0.46553235  0.93030340  0.36115840     0.15300
H205        H  0.66283084  0.84373828  0.19610962     0.13500
H206        H  0.66379001  0.84226351  0.26634656     0.13500
H207        H  0.33646397  0.86676293  0.20165414     0.13500
H208        H  0.33883007  0.87046591  0.27169965     0.13500
H209        H  0.50234822  0.88250406  0.20402747     0.26800
H210        H  0.50370680  0.88423219  0.26153457     0.26800
N211        N  0.49177024  0.09406960  0.29312159    -0.36000
N212        N  0.56511184  0.09916722  0.24117146    -0.56500
N213        N  0.49211398  0.09923573  0.18825579    -0.36000
N214        N  0.41882330  0.09124711  0.24064223    -0.56500
C215        C  0.52931112  0.08863308  0.31364659     0.27600
C216        C  0.45473495  0.08532444  0.31348042     0.27600
C217        C  0.52997279  0.09532942  0.16783367     0.27600
C218        C  0.45530871  0.09170545  0.16758292     0.27600
C219        C  0.58794397  0.11198016  0.27016632     0.36200
C220        C  0.58826872  0.11410809  0.21262604     0.36200
C221        C  0.39407827  0.10162778  0.26954244     0.36200
C222        C  0.39404751  0.10345797  0.21198717     0.36200
C223        C  0.51609330  0.07457504  0.34711440    -0.21200
C224        C  0.46893054  0.07277975  0.34708188    -0.21200
C225        C  0.51714948  0.08399735  0.13396412    -0.21200
C226        C  0.47001574  0.08178745  0.13379053    -0.21200
C227        C  0.62687312  0.13365827  0.25999499    -0.22300
C228        C  0.62724780  0.13476452  0.22344918    -0.22300
C229        C  0.35225657  0.11811455  0.25923202    -0.22300
C230        C  0.35215505  0.11913348  0.22268668    -0.22300
C231        C  0.57295072  0.10521003  0.30553369    -0.17700
C232        C  0.40976486  0.09797249  0.30499610    -0.17700
C233        C  0.40977122  0.10223903  0.17643871    -0.17600
C234        C  0.57394317  0.10990467  0.17703126    -0.17600
H235        H  0.53797075  0.06957976  0.36999539     0.15300
H236        H  0.44746652  0.06604793  0.36992304     0.15300
H237        H  0.53919736  0.08031259  0.11111399     0.15300
H238        H  0.44895967  0.07605072  0.11078627     0.15300
H239        H  0.65179268  0.14799880  0.27703708     0.13500
H240        H  0.65254185  0.15006080  0.20680380     0.13500
H241        H  0.32520988  0.12922258  0.27625633     0.13500
H242        H  0.32503937  0.13129889  0.20594631     0.13500
H243        H  0.49089652  0.11141655  0.26973975     0.26800
H244        H  0.49096874  0.11441413  0.21220796     0.26800
C245        C  0.34063876  0.84096448  0.08483461     0.00500
C246        C  0.36306563  0.81621664  0.11052940    -0.11400
C247        C  0.38774449  0.83349350  0.13840681     0.02700
C248        C  0.39027675  0.87646061  0.14151958     0.00400
C249        C  0.36712851  0.90146807  0.11672055    -0.11300
C250        C  0.34257406  0.88428968  0.08850970     0.02600
H251        H  0.36217915  0.78307773  0.10860332     0.15600
H252        H  0.36911617  0.93454369  0.11900131     0.15600
C253        C  0.32001030  0.91212323  0.06389106     0.37200
C254        C  0.41119403  0.80656115  0.16332092     0.37100
N255        N  0.30197517  0.93440964  0.04410254    -0.43100
N256        N  0.43002288  0.78541969  0.18357946    -0.43100
C257        C  0.34761859  0.84819116  0.38451718     0.00500
C258        C  0.38197767  0.82592627  0.36709319    -0.11400
C259        C  0.40667553  0.84314453  0.33884713     0.02700
C260        C  0.39747095  0.88364407  0.32725914     0.00400
C261        C  0.36370369  0.90647476  0.34456974    -0.11300
C262        C  0.33876704  0.88915882  0.37315802     0.02600
H263        H  0.38968530  0.79466673  0.37550382     0.15600
H264        H  0.35677622  0.93765699  0.33561498     0.15600
C265        C  0.30342686  0.91358465  0.38929814     0.37200
C266        C  0.44125194  0.81849639  0.32180596     0.37100
N267        N  0.27509389  0.93330476  0.40211702    -0.43100
N268        N  0.46901973  0.79901987  0.30802555    -0.43100
C269        C  0.11253468  0.65324512  0.13725083     0.00500
C270        C  0.09846163  0.69099520  0.12246648    -0.11400
C271        C  0.12153445  0.70878125  0.09351642     0.02700
C272        C  0.16043677  0.68913235  0.07927856     0.00400
C273        C  0.17464925  0.65130731  0.09406192    -0.11300
C274        C  0.15053122  0.63291395  0.12248750     0.02600
H275        H  0.06914959  0.70665054  0.13372648     0.15600
H276        H  0.20417101  0.63582793  0.08298997     0.15600
C277        C  0.16441582  0.59281065  0.13526831     0.37200
C278        C  0.10537625  0.74792599  0.07991244     0.37100
N279        N  0.17551141  0.56046134  0.14511271    -0.43100
N280        N  0.09196903  0.77923686  0.06926872    -0.43100
C281        C  0.17698116  0.68760098  0.37834558     0.00500
C282        C  0.14928269  0.71193736  0.35615741    -0.11400
C283        C  0.12513862  0.69458626  0.32826907     0.02700
C284        C  0.12755404  0.65192265  0.32286985     0.00400
C285        C  0.15629555  0.62757075  0.34447455    -0.11300
C286        C  0.18140944  0.64529002  0.37203345     0.02600
H287        H  0.14652298  0.74462671  0.36068363     0.15600
H288        H  0.15830348  0.59480912  0.34025107     0.15600
C289        C  0.21006990  0.61956092  0.39437119     0.37200
C290        C  0.09791862  0.72109546  0.30545651     0.37100
N291        N  0.23318178  0.59926938  0.41245904    -0.43100
N292        N  0.07642717  0.74218597  0.28684473    -0.43100
C293        C  0.66222085  0.82627295  0.38172723     0.00500
C294        C  0.67818680  0.86352561  0.36681346    -0.11400
C295        C  0.65473313  0.88303584  0.33863749     0.02700
C296        C  0.61421768  0.86556064  0.32529609     0.00400
C297        C  0.59802710  0.82859282  0.34032183    -0.11300
C298        C  0.62157933  0.80879509  0.36813073     0.02600
H299        H  0.70937908  0.87716064  0.37690942     0.15600
H300        H  0.56662392  0.81524388  0.33028264     0.15600
C301        C  0.60209958  0.77150968  0.38306541     0.37200
C302        C  0.67252867  0.92104485  0.32404917     0.37100
N303        N  0.58612496  0.74172558  0.39488992    -0.43100
N304        N  0.68695377  0.95149760  0.31235333    -0.43100
C305        C  0.66096455  0.83468075  0.08136382     0.00500
C306        C  0.63072187  0.81053939  0.10212594    -0.11400
C307        C  0.60643217  0.82712638  0.13032650     0.02700
C308        C  0.61198259  0.86876380  0.13849806     0.00400
C309        C  0.64186872  0.89330257  0.11804460    -0.11300
C310        C  0.66635230  0.87668688  0.08954172     0.02600
H311        H  0.62578155  0.77837314  0.09631711     0.15600
H312        H  0.64587871  0.92543947  0.12431566     0.15600
C313        C  0.69743852  0.90319612  0.06998480     0.37200
C314        C  0.57596406  0.80078365  0.15075217     0.37100
N315        N  0.72231286  0.92460405  0.05440101    -0.43100
N316        N  0.55167194  0.77982607  0.16731968    -0.43100
C317        C  0.85030475  0.67432773  0.39455055     0.00500
C318        C  0.89393542  0.69113143  0.38826239    -0.11400
C319        C  0.92106199  0.67807016  0.36009918     0.02700
C320        C  0.90568741  0.64607867  0.33825583     0.00400
C321        C  0.86282811  0.62788810  0.34543110    -0.11300
C322        C  0.83472368  0.64224222  0.37286481     0.02600
H323        H  0.90602276  0.71623032  0.40429370     0.15600
H324        H  0.85077234  0.60328733  0.32885391     0.15600
C325        C  0.79012796  0.62373973  0.37804167     0.37200
C326        C  0.96351817  0.69965558  0.35311923     0.37100
N327        N  0.75423219  0.60919097  0.38213797    -0.43100
N328        N  0.99754587  0.71694431  0.34763289    -0.43100
C329        C  0.83410231  0.68640395  0.09631026     0.00500
C330        C  0.83086711  0.64463401  0.10584174    -0.11400
C331        C  0.85763999  0.62828379  0.13366885     0.02700
C332        C  0.88799801  0.65399471  0.15196825     0.00400
C333        C  0.88929726  0.69602470  0.14363312    -0.11300
C334        C  0.86231212  0.71243285  0.11630038     0.02600
H335        H  0.80869885  0.62465400  0.09084678     0.15600
H336        H  0.91197662  0.71593058  0.15829720     0.15600
C337        C  0.86304075  0.75627646  0.10997903     0.37200
C338        C  0.85469080  0.58508460  0.14245902     0.37100
N339        N  0.86310356  0.79150240  0.10550851    -0.43100
N340        N  0.85255088  0.55048266  0.14975097    -0.43100
C341        C  0.64981199  0.16448048  0.08961743     0.00500
C342        C  0.62167968  0.18847202  0.11143096    -0.11400
C343        C  0.59783552  0.17116475  0.14016951     0.02700
C344        C  0.60195267  0.12894299  0.14807364     0.00400
C345        C  0.63022538  0.10466406  0.12688270    -0.11300
C346        C  0.65405750  0.12192641  0.09774850     0.02600
H347        H  0.61763390  0.22103327  0.10584338     0.15600
H348        H  0.63310452  0.07208013  0.13285573     0.15600
C349        C  0.68279287  0.09519282  0.07720927     0.37200
C350        C  0.56868015  0.19732046  0.16098474     0.37100
N351        N  0.70573105  0.07355216  0.06085788    -0.43100
N352        N  0.54539366  0.21827726  0.17769349    -0.43100
C353        C  0.64303157  0.16188118  0.39282826     0.00500
C354        C  0.66358891  0.12849295  0.37582526    -0.11400
C355        C  0.64178384  0.10947570  0.34720596     0.02700
C356        C  0.59871215  0.12384925  0.33538135     0.00400
C357        C  0.57787178  0.15654893  0.35293373    -0.11300
C358        C  0.59926433  0.17532743  0.38149061     0.02600
H359        H  0.69721111  0.11798072  0.38427090     0.15600
H360        H  0.54439169  0.16732195  0.34429623     0.15600
C361        C  0.57468171  0.20742788  0.39938673     0.37200
C362        C  0.66408133  0.07548429  0.33035350     0.37100
N363        N  0.55461162  0.23290968  0.41370598    -0.43100
N364        N  0.68202483  0.04833406  0.31669469    -0.43100
C365        C  0.82358557  0.31866301  0.08604440     0.00500
C366        C  0.82691177  0.29392290  0.11674701    -0.11400
C367        C  0.85724933  0.30395769  0.14384602     0.02700
C368        C  0.88274648  0.34064725  0.14141129     0.00400
C369        C  0.87852918  0.36610480  0.11112234    -0.11300
C370        C  0.84979245  0.35495171  0.08312139     0.02600
H371        H  0.80813366  0.26519155  0.11843206     0.15600
H372        H  0.89895159  0.39386124  0.10888751     0.15600
C373        C  0.84826516  0.38073224  0.05155924     0.37200
C374        C  0.86528092  0.27418836  0.17199966     0.37100
N375        N  0.84725992  0.40142759  0.02625802    -0.43100
N376        N  0.87266166  0.24987672  0.19402312    -0.43100
C377        C  0.81333262  0.32125833  0.37952337     0.00500
C378        C  0.81283305  0.29812148  0.34859876    -0.11400
C379        C  0.84273674  0.30731501  0.32052231     0.02700
C380        C  0.87267711  0.34126289  0.32261568     0.00400
C381        C  0.87081593  0.36614373  0.35263262    -0.11300
C382        C  0.84176353  0.35615290  0.38119325     0.02600
H383        H  0.79147525  0.27089308  0.34747613     0.15600
H384        H  0.89363177  0.39232020  0.35436884     0.15600
C385        C  0.84204949  0.38173260  0.41204966     0.37200
C386        C  0.84461057  0.27926917  0.29144039     0.37100
N387        N  0.84215281  0.40237471  0.43670452    -0.43100
N388        N  0.84564624  0.25614659  0.26856041    -0.43100
C389        C  0.34240547  0.16306180  0.38935411     0.00500
C390        C  0.33425759  0.12067736  0.38541373    -0.11400
C391        C  0.35475053  0.09874847  0.35774973     0.02700
C392        C  0.38399785  0.11916272  0.33346043     0.00400
C393        C  0.39250926  0.16108332  0.33739469    -0.11300
C394        C  0.37241503  0.18308121  0.36482752     0.02600
H395        H  0.31147595  0.10461556  0.40372611     0.15600
H396        H  0.41576598  0.17662309  0.31904293     0.15600
C397        C  0.38455341  0.22592510  0.36724812     0.37200
C398        C  0.34554677  0.05546304  0.35480903     0.37100
N399        N  0.39440152  0.26022989  0.36903554    -0.43100
N400        N  0.33815461  0.02073826  0.35247863    -0.43100
C401        C  0.33690662  0.16054783  0.08911298     0.00500
C402        C  0.36031177  0.18381314  0.11452271    -0.11400
C403        C  0.38264509  0.16516563  0.14335548     0.02700
C404        C  0.38183305  0.12217809  0.14782039     0.00400
C405        C  0.35787880  0.09855172  0.12324109    -0.11300
C406        C  0.33550485  0.11719986  0.09402361     0.02600
H407        H  0.36189253  0.21696082  0.11179421     0.15600
H408        H  0.35752304  0.06541855  0.12651366     0.15600
C409        C  0.31179706  0.09083887  0.06974820     0.37200
C410        C  0.40728217  0.19082299  0.16772937     0.37100
N411        N  0.29283804  0.06949334  0.05042131    -0.43100
N412        N  0.42699378  0.21124735  0.18734453    -0.43100
C413        C  0.16935113  0.32133300  0.38470183     0.00500
C414        C  0.17239252  0.30092332  0.35234908    -0.11400
C415        C  0.14300310  0.31106194  0.32426356     0.02700
C416        C  0.11161981  0.34372095  0.32769543     0.00400
C417        C  0.11020883  0.36553724  0.35946334    -0.11300
C418        C  0.13810338  0.35403902  0.38819033     0.02600
H419        H  0.19555530  0.27507455  0.34988046     0.15600
H420        H  0.08568414  0.39028086  0.36232267     0.15600
C421        C  0.13340146  0.37554417  0.42115884     0.37200
C422        C  0.14290285  0.28533293  0.29344905     0.37100
N423        N  0.12955052  0.39251770  0.44770461    -0.43100
N424        N  0.14238560  0.26460511  0.26884840    -0.43100
C425        C  0.12111046  0.35157347  0.14651036     0.00500
C426        C  0.15291246  0.31989643  0.15266390    -0.11400
C427        C  0.18165289  0.30650485  0.12543542     0.02700
C428        C  0.17848421  0.32475200  0.09120855     0.00400
C429        C  0.14886697  0.35817717  0.08564934    -0.11300
C430        C  0.12073961  0.37206751  0.11309624     0.02600
H431        H  0.15308296  0.30371596  0.17810660     0.15600
H432        H  0.14651639  0.37247849  0.05946638     0.15600
C433        C  0.08971703  0.40572042  0.10579503     0.37200
C434        C  0.21060376  0.27126837  0.13232275     0.37100
N435        N  0.06468361  0.43254280  0.09990093    -0.43100
N436        N  0.23369412  0.24293053  0.13763047    -0.43100
C437        C  0.94238153  0.08289270  0.49074556     0.00500
C438        C  0.93765750  0.10876975  0.46072387    -0.11400
C439        C  0.90302220  0.13874118  0.45917451     0.02700
C440        C  0.87214175  0.14268223  0.48783547     0.00400
C441        C  0.87736654  0.11765172  0.01890324    -0.11300
C442        C  0.91265850  0.08855169  0.02081501     0.02600
H443        H  0.95954825  0.10419504  0.43782959     0.15600
H444        H  0.85413011  0.12088260  0.04120056     0.15600
C445        C  0.91754250  0.06393470  0.05289217     0.37200
C446        C  0.89786205  0.16321106  0.42706872     0.37100
N447        N  0.92170065  0.04418124  0.07854936    -0.43100
N448        N  0.89354490  0.18278628  0.40132453    -0.43100
C449        C  0.04683309  0.08583845  0.48273779     0.00500
C450        C  0.05191276  0.10971220  0.01407707    -0.11400
C451        C  0.08637219  0.13977130  0.01585800     0.02700
C452        C  0.11597285  0.14625104  0.48601661     0.00400
C453        C  0.10943802  0.12412118  0.45491566    -0.11300
C454        C  0.07496055  0.09440488  0.45294671     0.02600
H455        H  0.03080412  0.10299901  0.03720826     0.15600
H456        H  0.13195931  0.12951715  0.43234537     0.15600
C457        C  0.07009667  0.07180398  0.42054574     0.37200
C458        C  0.09216272  0.16179359  0.04843530     0.37100
N459        N  0.06604674  0.05353758  0.39469312    -0.43100
N460        N  0.09689244  0.17940057  0.07457005    -0.43100
C461        C  0.05353416  0.93515975  0.48638220     0.00500
C462        C  0.05288064  0.90682031  0.45876935    -0.11400
C463        C  0.08705653  0.87651011  0.45628834     0.02700
C464        C  0.12331273  0.87498492  0.48122720     0.00400
C465        C  0.12327706  0.90297191  0.00932265    -0.11300
C466        C  0.08848616  0.93217588  0.01262682     0.02600
H467        H  0.02672534  0.90933972  0.43840451     0.15600
H468        H  0.15039858  0.90140156  0.02901052     0.15600
C469        C  0.08990339  0.95877595  0.04287231     0.37200
C470        C  0.08559120  0.84880178  0.42687728     0.37100
N471        N  0.09126418  0.98005589  0.06709330    -0.43100
N472        N  0.08449646  0.82654788  0.40331825    -0.43100
C473        C  0.94621470  0.93230185  0.48110829     0.00500
C474        C  0.95208987  0.89896160  0.00451230    -0.11400
C475        C  0.92093279  0.86598523  0.00500778     0.02700
C476        C  0.88222129  0.86653904  0.48266698     0.00400
C477        C  0.87722909  0.89929267  0.45836362    -0.11300
C478        C  0.90906543  0.93138213  0.45683491     0.02600
H479        H  0.98022020  0.89903441  0.02330697     0.15600
H480        H  0.84818380  0.89984900  0.44037422     0.15600
C481        C  0.90219319  0.96345747  0.43032090     0.39600
C482        C  0.92925223  0.83243701  0.02970040     0.37100
N483        N  0.89642254  0.98929546  0.40928980    -0.43100
N484        N  0.93672616  0.80559582  0.04939792    -0.43100
C485        C  0.54550791  0.42840128  0.49453202     0.00500
C486        C  0.55320079  0.40962775  0.46197617    -0.11400
C487        C  0.58274625  0.37589989  0.45937317     0.02700
C488        C  0.60537321  0.36002880  0.49011767     0.00400
C489        C  0.59639719  0.37919063  0.02283045    -0.11300
C490        C  0.56728437  0.41332648  0.02488889     0.02600
H491        H  0.53719738  0.42235570  0.43821257     0.15600
H492        H  0.61315954  0.36808070  0.04682712     0.15600
C493        C  0.56051766  0.43216979  0.05886991     0.37200
C494        C  0.58961309  0.35928667  0.42450225     0.37100
N495        N  0.55521051  0.44712032  0.08619063    -0.43100
N496        N  0.59504752  0.34628012  0.39642960    -0.43100
C497        C  0.44349052  0.43062044  0.48891141     0.00500
C498        C  0.43808901  0.40611644  0.01795558    -0.11400
C499        C  0.40934727  0.37152836  0.01805753     0.02700
C500        C  0.38470770  0.36104216  0.48775887     0.00400
C501        C  0.39247812  0.38516209  0.45684006    -0.11300
C502        C  0.42141750  0.41958459  0.45724415     0.02600
H503        H  0.45548098  0.41459705  0.04217897     0.15600
H504        H  0.37509842  0.37779061  0.43234459     0.15600
C505        C  0.42822222  0.44317739  0.42481112     0.37200
C506        C  0.40545049  0.34791522  0.05076136     0.37100
N507        N  0.43396952  0.46214878  0.39889537    -0.43100
N508        N  0.40224497  0.32894310  0.07694587    -0.43100
C509        C  0.44802547  0.58332752  0.48774677     0.00500
C510        C  0.43958649  0.60542392  0.01655458    -0.11400
C511        C  0.40944616  0.63908554  0.01679636     0.02700
C512        C  0.38619209  0.65089520  0.48689991     0.00400
C513        C  0.39973808  0.63199241  0.45514348    -0.11300
C514        C  0.43017675  0.59859750  0.45538464     0.02600
H515        H  0.45605273  0.59544572  0.04103251     0.15600
H516        H  0.38553696  0.64246435  0.42996976     0.15600
C517        C  0.44190402  0.57982851  0.42216623     0.37200
C518        C  0.40377573  0.66051495  0.04969393     0.37100
N519        N  0.45140578  0.56484924  0.39553730    -0.43100
N520        N  0.39945012  0.67766950  0.07610901    -0.43100
C521        C  0.55179016  0.57971745  0.48934788     0.00500
C522        C  0.56079211  0.60147198  0.02060271    -0.11400
C523        C  0.59401511  0.63268991  0.02082099     0.02700
C524        C  0.61960413  0.64227816  0.48880679     0.00400
C525        C  0.61225217  0.61805198  0.45877596    -0.11300
C526        C  0.57871144  0.58726877  0.45879639     0.02600
H527        H  0.54320628  0.59286014  0.04502411     0.15600
H528        H  0.63335442  0.62251370  0.43528218     0.15600
C529        C  0.57277256  0.56338444  0.42721911     0.37200
C530        C  0.60088490  0.65401824  0.05363476     0.37100
N531        N  0.56780787  0.54436000  0.40188285    -0.43100
N532        N  0.60609050  0.67126085  0.07990501    -0.43100
C533        C  0.47355345  0.54423997  0.98766709     0.02900
C534        C  0.52177002  0.54302802  0.99150089     0.02900
C535        C  0.54433672  0.50432700  0.49532763    -0.17600
C536        C  0.51948509  0.46749651  0.49478996     0.02900
C537        C  0.47136598  0.46876375  0.49100657     0.02900
C538        C  0.44902412  0.50707318  0.98641242    -0.17600
H539        H  0.41204578  0.50784908  0.98337172     0.04900
H540        H  0.58147056  0.50317871  0.49696249     0.04900
C541        C  0.02266791  0.97212079  0.98550798     0.02900
C542        C  0.97392377  0.97080386  0.98539800     0.02900
C543        C  0.94973182  0.00783846  0.98935877    -0.17600
C544        C  0.97175126  0.04610162  0.98943453     0.02900
C545        C  0.01980748  0.04752566  0.98553167     0.02900
C546        C  0.04440835  0.01061975  0.98442124    -0.17600
H547        H  0.08155382  0.01194782  0.98272247     0.04900
H548        H  0.91263354  0.00701593  0.99158685     0.04900
O549        O  0.33502779  0.31116080  0.51573249    -0.77900
C550        C  0.19940379  0.30541973  0.56051919     0.83200
O551        O  0.29374872  0.16404943  0.53388269    -0.79000
O552        O  0.14874347  0.21234911  0.99215018    -0.80500
O553        O  0.23735493  0.29517799  0.91118711    -0.80200
O554        O  0.33496743  0.31497171  0.95631329    -0.78900
Zn555      Zn  0.28691050  0.26868603  0.52964631     1.55700
O556        O  0.17354381  0.29507268  0.94405489    -0.80300
Cd557      Cd  0.28659781  0.27014648  0.94449578     1.59700
Cd558      Cd  0.26205296  0.18505123  0.98767960     1.59600
O559        O  0.31733108  0.22433162  0.91595059    -0.80300
O560        O  0.25742087  0.24662176  0.98834479    -1.90800
Cd561      Cd  0.19135176  0.26322018  0.98969459     1.59900
O562        O  0.29911115  0.16550519  0.94334560    -0.80200
O563        O  0.17531530  0.29793881  0.53323916    -0.78900
C564        C  0.31377585  0.18340858  0.55862936     0.83700
C565        C  0.35070604  0.32668701  0.98607703     0.83300
O566        O  0.24159120  0.29553856  0.56246137    -0.77800
C567        C  0.19494642  0.30325710  0.91528659     0.84100
O568        O  0.31480010  0.22254933  0.55842276    -0.77900
C569        C  0.31867139  0.18528039  0.91788324     0.84300
C570        C  0.15615848  0.17415577  0.98852655     0.84600
O571        O  0.19655495  0.15948668  0.98536654    -0.80300
O572        O  0.75529457  0.29495868  0.55978778    -0.77900
C573        C  0.64026743  0.32662344  0.98898012     0.83200
O574        O  0.69239141  0.16531158  0.53408701    -0.79000
O575        O  0.66707614  0.22317590  0.91901255    -0.80500
O576        O  0.81264286  0.29561185  0.93893209    -0.80200
O577        O  0.81946863  0.29451225  0.52747692    -0.78900
Zn578      Zn  0.70645260  0.26951053  0.52948641     1.55700
O579        O  0.74640110  0.29466233  0.90931984    -0.80300
Cd580      Cd  0.79900180  0.26137621  0.98422278     1.59700
Cd581      Cd  0.72695318  0.18432303  0.98878411     1.59600
O582        O  0.84046370  0.20959506  0.98307796    -0.80300
O583        O  0.73275872  0.24586867  0.98773552    -1.90800
Cd584      Cd  0.70051873  0.26888693  0.94530266     1.59900
O585        O  0.79171594  0.15720446  0.99048674    -0.80200
O586        O  0.65321156  0.31299930  0.95913384    -0.78900
C587        C  0.67517277  0.18588758  0.55932672     0.83700
C588        C  0.79773070  0.30308001  0.55569671     0.83300
O589        O  0.65769302  0.31231809  0.51758830    -0.77800
C590        C  0.78878661  0.30379185  0.91142381     0.84100
O591        O  0.67805568  0.22489585  0.55949684    -0.77900
C592        C  0.83237646  0.17134688  0.98706482     0.84300
C593        C  0.66828569  0.18412333  0.92031490     0.84600
O594        O  0.69127219  0.16436255  0.94393403    -0.80300
O595        O  0.67182139  0.68888299  0.51655990    -0.77900
C596        C  0.81019330  0.70162627  0.56427699     0.83200
O597        O  0.70407587  0.83434207  0.52635516    -0.79000
O598        O  0.85625822  0.79781132  0.98884285    -0.80500
O599        O  0.77781363  0.69722717  0.91692158    -0.80200
O600        O  0.67563326  0.68298779  0.95854081    -0.78900
Zn601      Zn  0.72150990  0.72976451  0.52904748     1.55700
O602        O  0.84068918  0.70886942  0.94900709    -0.80300
Cd603      Cd  0.72575061  0.72560096  0.94471077     1.59700
Cd604      Cd  0.74067888  0.81443713  0.98246122     1.59600
O605        O  0.69407297  0.76752410  0.91084857    -0.80300
O606        O  0.75124369  0.75354537  0.98725668    -1.90800
Cd607      Cd  0.81875219  0.74392088  0.99088501     1.59900
O608        O  0.70408691  0.82831604  0.93594296    -0.80200
O609        O  0.83481548  0.71575400  0.53891958    -0.78900
C610        C  0.68747938  0.81401667  0.55273012     0.83700
C611        C  0.65763728  0.67312578  0.98838426     0.83300
O612        O  0.76653919  0.70283174  0.56339482    -0.77800
C613        C  0.82092296  0.69386050  0.92196230     0.84100
O614        O  0.69211297  0.77522384  0.55548165    -0.77900
C615        C  0.68819854  0.80627401  0.91108311     0.84300
C616        C  0.84506439  0.83528158  0.98437561     0.84600
O617        O  0.80316463  0.84620238  0.98075322    -0.80300
O618        O  0.23019781  0.71092997  0.55361282    -0.77900
C619        C  0.35005392  0.68420239  0.98437885     0.83200
O620        O  0.30116729  0.84156347  0.52858093    -0.79000
O621        O  0.31803685  0.78802511  0.91087652    -0.80500
O622        O  0.17441802  0.72181446  0.93314975    -0.80200
O623        O  0.16589831  0.72192206  0.52280696    -0.78900
Zn624      Zn  0.28139497  0.73842572  0.52526100     1.55700
O625        O  0.24247666  0.71207395  0.90735153    -0.80300
Cd626      Cd  0.18917444  0.75417711  0.97821997     1.59700
Cd627      Cd  0.26560898  0.82630850  0.98287576     1.59600
O628        O  0.15083254  0.80738404  0.97532877    -0.80300
O629        O  0.25654895  0.76510857  0.98226577    -1.90800
Cd630      Cd  0.28801831  0.74159765  0.94021861     1.59900
O631        O  0.20237394  0.85672824  0.98393291    -0.80200
O632        O  0.33821763  0.69949404  0.95437619    -0.78900
C633        C  0.31574854  0.82041127  0.55511370     0.83700
C634        C  0.18681033  0.70776979  0.55011020     0.83300
O635        O  0.33046206  0.69569285  0.51360385    -0.77800
C636        C  0.19908240  0.70785383  0.90821106     0.84100
O637        O  0.31024076  0.78151242  0.55662681    -0.77900
C638        C  0.16096261  0.84491596  0.97963898     0.84300
C639        C  0.32096171  0.82695073  0.91268190     0.84600
O640        O  0.30265470  0.84658899  0.93810019    -0.80300
N641        N  0.99863135  0.35797010  0.68057260    -0.36000
N642        N  0.06518257  0.35805617  0.73672456    -0.56500
N643        N  0.99229763  0.35512738  0.78960397    -0.36000
N644        N  0.92580886  0.35436675  0.73336446    -0.56500
C645        C  0.03721196  0.34655894  0.66338294     0.27600
C646        C  0.96279169  0.34415911  0.66145534     0.27600
C647        C  0.02901983  0.34290447  0.80899629     0.27600
C648        C  0.95439306  0.34192863  0.80723596     0.27600
C649        C  0.09350048  0.36566926  0.70897087     0.36200
C650        C  0.09005128  0.36382860  0.76635700     0.36200
C651        C  0.90054328  0.36008728  0.70373254     0.36200
C652        C  0.89694991  0.35889549  0.76106312     0.36200
C653        C  0.02568407  0.32529629  0.63309971    -0.21200
C654        C  0.97867910  0.32395317  0.63180348    -0.21200
C655        C  0.01423880  0.32198981  0.83937025    -0.21200
C656        C  0.96714239  0.32151029  0.83831186    -0.21200
C657        C  0.13639916  0.37729303  0.72094185    -0.22300
C658        C  0.13420829  0.37615667  0.75743944    -0.22300
C659        C  0.85551561  0.36904610  0.71257163    -0.22300
C660        C  0.85325046  0.36836594  0.74904115    -0.22300
C661        C  0.08248170  0.35633495  0.67361107    -0.17700
C662        C  0.91609704  0.35056613  0.66944991    -0.17700
C663        C  0.90855915  0.34886535  0.79647222    -0.17600
C664        C  0.07542646  0.35150032  0.80065124    -0.17600
H665        H  0.04870781  0.31199527  0.61391571     0.15300
H666        H  0.95852022  0.30948740  0.61143016     0.15300
H667        H  0.03515663  0.30830059  0.86014781     0.15300
H668        H  0.94486040  0.30735800  0.85803904     0.15300
H669        H  0.16659123  0.38397955  0.70509870     0.13500
H670        H  0.16246151  0.38166118  0.77534981     0.13500
H671        H  0.82691734  0.37357411  0.69462188     0.13500
H672        H  0.82259023  0.37236745  0.76484013     0.13500
H673        H  0.99673843  0.37744775  0.70214135     0.26800
H674        H  0.99299720  0.37465013  0.76739345     0.26800
N675        N  0.00411615  0.63055390  0.68466424    -0.36000
N676        N  0.93647187  0.62829351  0.74206303    -0.56500
N677        N  0.01351669  0.62804247  0.78994819    -0.36000
N678        N  0.08163554  0.62630934  0.73271522    -0.56500
C679        C  0.96469961  0.62584489  0.66631788     0.27600
C680        C  0.03918302  0.62505833  0.66167674     0.27600
C681        C  0.97828060  0.62031575  0.81252162     0.27600
C682        C  0.05277535  0.62004021  0.80779011     0.27600
C683        C  0.90927046  0.64037730  0.71482669     0.36200
C684        C  0.91438877  0.63877246  0.77215392     0.36200
C685        C  0.10368200  0.63858082  0.70271461     0.36200
C686        C  0.10862209  0.63738723  0.76004707     0.36200
C687        C  0.97486357  0.61622453  0.63146202    -0.21200
C688        C  0.02188801  0.61559694  0.62857360    -0.21200
C689        C  0.99529914  0.60605175  0.84481219    -0.21200
C690        C  0.04239690  0.60628410  0.84193947    -0.21200
C691        C  0.86881342  0.65686269  0.72761023    -0.22300
C692        C  0.87217932  0.65613713  0.76397692    -0.22300
C693        C  0.14581375  0.65563173  0.71097143    -0.22300
C694        C  0.14897766  0.65481953  0.74737635    -0.22300
C695        C  0.92071428  0.63714527  0.67857290    -0.17700
C696        C  0.08531152  0.63592587  0.66812650    -0.17700
C697        C  0.09663792  0.63297366  0.79627194    -0.17600
C698        C  0.93255241  0.63327719  0.80671607    -0.17600
H699        H  0.95093146  0.61235940  0.60984553     0.15300
H700        H  0.04117657  0.61124201  0.60435189     0.15300
H701        H  0.97587139  0.59900285  0.86867787     0.15300
H702        H  0.06625786  0.59931268  0.86318542     0.15300
H703        H  0.84033260  0.66907413  0.71232779     0.13500
H704        H  0.84682759  0.66798738  0.78209080     0.13500
H705        H  0.17102215  0.66842685  0.69276914     0.13500
H706        H  0.17718259  0.66669584  0.76276875     0.13500
H707        H  0.00673059  0.64441038  0.70904523     0.26800
H708        H  0.01145054  0.64562015  0.76678572     0.26800
N709        N  0.50310859  0.89773965  0.67928111    -0.36000
N710        N  0.57736422  0.89433134  0.73164929    -0.56500
N711        N  0.50644451  0.90102959  0.78446725    -0.36000
N712        N  0.43194482  0.90706042  0.73233759    -0.56500
C713        C  0.54056586  0.90163957  0.65828543     0.27600
C714        C  0.46583921  0.90502539  0.65874684     0.27600
C715        C  0.54452509  0.90281876  0.80480251     0.27600
C716        C  0.47057007  0.91207756  0.80485107     0.27600
C717        C  0.59966591  0.88071079  0.70272000     0.36200
C718        C  0.60055272  0.87950881  0.76022509     0.36200
C719        C  0.40601611  0.89452731  0.70478313     0.36200
C720        C  0.40783314  0.89796510  0.76218089     0.36200
C721        C  0.52699005  0.91281035  0.62416068    -0.21200
C722        C  0.47982398  0.91473250  0.62441077    -0.21200
C723        C  0.53306235  0.91656910  0.83823292    -0.21200
C724        C  0.48629735  0.92254672  0.83824228    -0.21200
C725        C  0.63842865  0.85881727  0.71292843    -0.22300
C726        C  0.63885680  0.85790229  0.74945330    -0.22300
C727        C  0.36423557  0.87967680  0.71703867    -0.22300
C728        C  0.36545943  0.88169646  0.75345870    -0.22300
C729        C  0.58476063  0.88693356  0.66730109    -0.17700
C730        C  0.42038850  0.89515577  0.66885143    -0.17700
C731        C  0.42453572  0.90222683  0.79718404    -0.17600
C732        C  0.58697371  0.88499314  0.79582800    -0.17600
H733        H  0.54860414  0.91637247  0.60091705     0.15300
H734        H  0.45834092  0.92030262  0.60143110     0.15300
H735        H  0.55556746  0.91926264  0.86090629     0.15300
H736        H  0.46567814  0.93026151  0.86108921     0.15300
H737        H  0.66308327  0.84404477  0.69588157     0.13500
H738        H  0.66393597  0.84246522  0.76613263     0.13500
H739        H  0.33640554  0.86743949  0.70146777     0.13500
H740        H  0.33878543  0.87121833  0.77148554     0.13500
H741        H  0.50245759  0.88279964  0.70379607     0.26800
H742        H  0.50373251  0.88462569  0.76128688     0.26800
N743        N  0.49158682  0.09427393  0.79261322    -0.36000
N744        N  0.56492806  0.10002259  0.74069339    -0.56500
N745        N  0.49208166  0.09974905  0.68772883    -0.36000
N746        N  0.41870765  0.09111049  0.74013669    -0.56500
C747        C  0.52917100  0.08895483  0.81310699     0.27600
C748        C  0.45463586  0.08499907  0.81289824     0.27600
C749        C  0.52995800  0.09627312  0.66724491     0.27600
C750        C  0.45529962  0.09231971  0.66700408     0.27600
C751        C  0.58759955  0.11293153  0.76972789     0.36200
C752        C  0.58808967  0.11506872  0.71219299     0.36200
C753        C  0.39387368  0.10121431  0.76907791     0.36200
C754        C  0.39392800  0.10344029  0.71152031     0.36200
C755        C  0.51608732  0.07447488  0.84647798    -0.21200
C756        C  0.46894218  0.07226048  0.84641704    -0.21200
C757        C  0.51716388  0.08531104  0.63327107    -0.21200
C758        C  0.47004268  0.08290223  0.63310258    -0.21200
C759        C  0.62639462  0.13484357  0.75963090    -0.22300
C760        C  0.62690156  0.13592209  0.72309172    -0.22300
C761        C  0.35200452  0.11763687  0.75882096    -0.22300
C762        C  0.35195510  0.11890629  0.72227564    -0.22300
C763        C  0.57266633  0.10588187  0.80506944    -0.17700
C764        C  0.40957340  0.09745128  0.80452327    -0.17700
C765        C  0.40969466  0.10253883  0.67596429    -0.17600
C766        C  0.57391889  0.11081000  0.67656729    -0.17600
H767        H  0.53800863  0.06943720  0.86932692     0.15300
H768        H  0.44752329  0.06513622  0.86920200     0.15300
H769        H  0.53920770  0.08201396  0.61036685     0.15300
H770        H  0.44900143  0.07738249  0.61004597     0.15300
H771        H  0.65116895  0.14931207  0.77671497     0.13500
H772        H  0.65216078  0.15134370  0.70650068     0.13500
H773        H  0.32490370  0.12856215  0.77588533     0.13500
H774        H  0.32482046  0.13111742  0.70557813     0.13500
H775        H  0.49054899  0.11186395  0.76936750     0.26800
H776        H  0.49084157  0.11456256  0.71184453     0.26800
C777        C  0.34014954  0.84104637  0.58495550     0.00500
C778        C  0.36207737  0.81637681  0.61095960    -0.11400
C779        C  0.38698903  0.83372314  0.63867550     0.02700
C780        C  0.39020032  0.87670509  0.64136004     0.00400
C781        C  0.36746681  0.90166438  0.61628534    -0.11300
C782        C  0.34274396  0.88440689  0.58819350     0.02600
H783        H  0.36067374  0.78322049  0.60937976     0.15600
H784        H  0.36993992  0.93474924  0.61824309     0.15600
C785        C  0.32078949  0.91220103  0.56320330     0.37200
C786        C  0.41001786  0.80681390  0.66384321     0.37100
N787        N  0.30326613  0.93446813  0.54311866    -0.43100
N788        N  0.42851714  0.78568412  0.68429437    -0.43100
C789        C  0.34743191  0.84873659  0.88424287     0.00500
C790        C  0.38142267  0.82627559  0.86657663    -0.11400
C791        C  0.40623982  0.84348458  0.83839177     0.02700
C792        C  0.39742405  0.88412592  0.82701955     0.00400
C793        C  0.36404042  0.90715354  0.84457118    -0.11300
C794        C  0.33909218  0.88989606  0.87318487     0.02600
H795        H  0.38881888  0.79489186  0.87479597     0.15600
H796        H  0.35748617  0.93846974  0.83582499     0.15600
C797        C  0.30440084  0.91466177  0.88975830     0.37200
C798        C  0.44066532  0.81873822  0.82127722     0.37100
N799        N  0.27664030  0.93469080  0.90294930    -0.43100
N800        N  0.46836552  0.79921230  0.80746894    -0.43100
C801        C  0.11211296  0.65275744  0.63741927     0.00500
C802        C  0.09757870  0.69014939  0.62221271    -0.11400
C803        C  0.12053570  0.70782205  0.59315039     0.02700
C804        C  0.15983476  0.68847412  0.57923882     0.00400
C805        C  0.17447835  0.65097544  0.59442491    -0.11300
C806        C  0.15045047  0.63265527  0.62294329     0.02600
H807        H  0.06797745  0.70561271  0.63322437     0.15600
H808        H  0.20429597  0.63569683  0.58361400     0.15600
C809        C  0.16476809  0.59283771  0.63612262     0.37200
C810        C  0.10381329  0.74656710  0.57910035     0.37100
N811        N  0.17616929  0.56071101  0.64631328    -0.43100
N812        N  0.08991760  0.77754775  0.56810472    -0.43100
C813        C  0.17608306  0.68785786  0.87856307     0.00500
C814        C  0.14830723  0.71209963  0.85635615    -0.11400
C815        C  0.12414640  0.69463962  0.82852427     0.02700
C816        C  0.12663169  0.65196576  0.82319394     0.00400
C817        C  0.15535735  0.62769063  0.84487813    -0.11300
C818        C  0.18047770  0.64551455  0.87238419     0.02600
H819        H  0.14554519  0.74480636  0.86079485     0.15600
H820        H  0.15739257  0.59491603  0.84072956     0.15600
C821        C  0.20916346  0.61987317  0.89477983     0.37200
C822        C  0.09689174  0.72105072  0.80565294     0.37100
N823        N  0.23229315  0.59965709  0.91291728    -0.43100
N824        N  0.07536041  0.74203330  0.78697831    -0.43100
C825        C  0.66212611  0.82615985  0.88151952     0.00500
C826        C  0.67635783  0.86472647  0.86815777    -0.11400
C827        C  0.65291498  0.88427253  0.84000246     0.02700
C828        C  0.61424044  0.86543429  0.82499898     0.00400
C829        C  0.59974202  0.82714861  0.83841441    -0.11300
C830        C  0.62321429  0.80736994  0.86628245     0.02600
H831        H  0.70615943  0.87944903  0.87949634     0.15600
H832        H  0.56964240  0.81279949  0.82713508     0.15600
C833        C  0.60527028  0.76869399  0.87958659     0.37200
C834        C  0.66872192  0.92376196  0.82718316     0.37100
N835        N  0.59055733  0.73778407  0.89011756    -0.43100
N836        N  0.68147964  0.95544348  0.81692001    -0.43100
C837        C  0.66149507  0.83480250  0.58126675     0.00500
C838        C  0.63045512  0.81090157  0.60149954    -0.11400
C839        C  0.60609474  0.82749412  0.62966119     0.02700
C840        C  0.61225598  0.86893468  0.63826650     0.00400
C841        C  0.64298226  0.89324119  0.61836027    -0.11300
C842        C  0.66765157  0.87657939  0.58995409     0.02600
H843        H  0.62498119  0.77890468  0.59532134     0.15600
H844        H  0.64756739  0.92520405  0.62501690     0.15600
C845        C  0.69980674  0.90272932  0.57110052     0.37200
C846        C  0.57500798  0.80132273  0.64967092     0.37100
N847        N  0.72556560  0.92385609  0.55611877    -0.43100
N848        N  0.55023922  0.78049796  0.66592819    -0.43100
C849        C  0.84974893  0.67460287  0.89445214     0.00500
C850        C  0.89339598  0.69133949  0.88809420    -0.11400
C851        C  0.92039578  0.67828055  0.85986101     0.02700
C852        C  0.90490804  0.64631750  0.83803583     0.00400
C853        C  0.86197622  0.62827429  0.84520128    -0.11300
C854        C  0.83396713  0.64266860  0.87267269     0.02600
H855        H  0.90560739  0.71638169  0.90413561     0.15600
H856        H  0.84980249  0.60373919  0.82860178     0.15600
C857        C  0.78923122  0.62440158  0.87773718     0.37200
C858        C  0.96285263  0.69983041  0.85281079     0.37100
N859        N  0.75320609  0.61007180  0.88171718    -0.43100
N860        N  0.99686824  0.71711821  0.84728200    -0.43100
C861        C  0.83368051  0.68556276  0.59620088     0.00500
C862        C  0.83028156  0.64381941  0.60581907    -0.11400
C863        C  0.85712706  0.62743414  0.63360460     0.02700
C864        C  0.88777663  0.65306478  0.65170801     0.00400
C865        C  0.88926299  0.69505830  0.64326869    -0.11300
C866        C  0.86215294  0.71151258  0.61604355     0.02600
H867        H  0.80790297  0.62389708  0.59095138     0.15600
H868        H  0.91211023  0.71491888  0.65782570     0.15600
C869        C  0.86297691  0.75535158  0.60970385     0.37200
C870        C  0.85383497  0.58431509  0.64263909     0.37100
N871        N  0.86307933  0.79057253  0.60520537    -0.43100
N872        N  0.85139893  0.54978818  0.65015844    -0.43100
C873        C  0.65069882  0.16496604  0.58943752     0.00500
C874        C  0.62248342  0.18908626  0.61108435    -0.11400
C875        C  0.59836831  0.17191847  0.63974055     0.02700
C876        C  0.60219799  0.12968856  0.64768453     0.00400
C877        C  0.63062799  0.10529127  0.62670687    -0.11300
C878        C  0.65483858  0.12244575  0.59770746     0.02600
H879        H  0.61858713  0.22164864  0.60543200     0.15600
H880        H  0.63339519  0.07272080  0.63277112     0.15600
C881        C  0.68395390  0.09569069  0.57750598     0.37200
C882        C  0.56931667  0.19824696  0.66047807     0.37100
N883        N  0.70725095  0.07406777  0.56143684    -0.43100
N884        N  0.54615245  0.21934903  0.67714976    -0.43100
C885        C  0.64256987  0.16178875  0.89282953     0.00500
C886        C  0.66336497  0.12881460  0.87541224    -0.11400
C887        C  0.64170020  0.11017079  0.84654178     0.02700
C888        C  0.59839967  0.12432645  0.83502494     0.00400
C889        C  0.57737095  0.15665910  0.85293868    -0.11300
C890        C  0.59875205  0.17523585  0.88160091     0.02600
H891        H  0.69712747  0.11845167  0.88365274     0.15600
H892        H  0.54381280  0.16737951  0.84443748     0.15600
C893        C  0.57422970  0.20730744  0.89958431     0.37200
C894        C  0.66455851  0.07702576  0.82891127     0.37100
N895        N  0.55428679  0.23283952  0.91394042    -0.43100
N896        N  0.68301575  0.05068987  0.81450232    -0.43100
C897        C  0.82356878  0.31928553  0.58575042     0.00500
C898        C  0.82571628  0.29483521  0.61668240    -0.11400
C899        C  0.85558289  0.30469707  0.64411897     0.02700
C900        C  0.88176117  0.34100173  0.64179109     0.00400
C901        C  0.87862211  0.36625956  0.61128743    -0.11300
C902        C  0.85038247  0.35522091  0.58295389     0.02600
H903        H  0.80641903  0.26637510  0.61831048     0.15600
H904        H  0.89958276  0.39370034  0.60913501     0.15600
C905        C  0.84998620  0.38074811  0.55121948     0.37200
C906        C  0.86249841  0.27500214  0.67249791     0.37100
N907        N  0.84990335  0.40126235  0.52579654    -0.43100
N908        N  0.86893218  0.25067092  0.69468076    -0.43100
C909        C  0.81235423  0.32094815  0.87997233     0.00500
C910        C  0.81236743  0.29755663  0.84920644    -0.11400
C911        C  0.84214000  0.30699287  0.82112336     0.02700
C912        C  0.87144414  0.34139257  0.82306952     0.00400
C913        C  0.86902452  0.36650332  0.85291781    -0.11300
C914        C  0.84007232  0.35629705  0.88148586     0.02600
H915        H  0.79152576  0.26999773  0.84822270     0.15600
H916        H  0.89136213  0.39301801  0.85453818     0.15600
C917        C  0.83971520  0.38210619  0.91219567     0.37200
C918        C  0.84459238  0.27873611  0.79223036     0.37100
N919        N  0.83926235  0.40290975  0.93674556    -0.43100
N920        N  0.84605767  0.25536553  0.76955849    -0.43100
C921        C  0.34268870  0.16251895  0.88914212     0.00500
C922        C  0.33424933  0.12020366  0.88507222    -0.11400
C923        C  0.35455754  0.09827858  0.85732010     0.02700
C924        C  0.38389823  0.11863575  0.83305419     0.00400
C925        C  0.39269641  0.16049152  0.83712922    -0.11300
C926        C  0.37281265  0.18247042  0.86466632     0.02600
H927        H  0.31137055  0.10419995  0.90334951     0.15600
H928        H  0.41604637  0.17598529  0.81882044     0.15600
C929        C  0.38533532  0.22520400  0.86728549     0.37200
C930        C  0.34503329  0.05506587  0.85428016     0.37100
N931        N  0.39550847  0.25941706  0.86923523    -0.43100
N932        N  0.33731732  0.02040327  0.85191407    -0.43100
C933        C  0.33634338  0.16084483  0.58891579     0.00500
C934        C  0.35982066  0.18411739  0.61428376    -0.11400
C935        C  0.38237639  0.16546334  0.64300469     0.02700
C936        C  0.38160357  0.12247651  0.64744959     0.00400
C937        C  0.35762262  0.09883954  0.62289826    -0.11300
C938        C  0.33515244  0.11748155  0.59372861     0.02600
H939        H  0.36133637  0.21727003  0.61158149     0.15600
H940        H  0.35739905  0.06569950  0.62611551     0.15600
C941        C  0.31173314  0.09108155  0.56932172     0.37200
C942        C  0.40729468  0.19109592  0.66723116     0.37100
N943        N  0.29306896  0.06968683  0.54986746    -0.43100
N944        N  0.42728730  0.21148726  0.68670444    -0.43100
C945        C  0.16882967  0.32008853  0.88496888     0.00500
C946        C  0.17139341  0.29955447  0.85265773    -0.11400
C947        C  0.14179537  0.30977758  0.82472187     0.02700
C948        C  0.11058648  0.34256313  0.82829916     0.00400
C949        C  0.10960061  0.36443142  0.86004611    -0.11300
C950        C  0.13778341  0.35291986  0.88859512     0.02600
H951        H  0.19444826  0.27364457  0.85008361     0.15600
H952        H  0.08528389  0.38932057  0.86300192     0.15600
C953        C  0.13371948  0.37464915  0.92150006     0.37200
C954        C  0.14151414  0.28416162  0.79383526     0.37100
N955        N  0.13042603  0.39181603  0.94799400    -0.43100
N956        N  0.14093715  0.26355474  0.76915796    -0.43100
C957        C  0.11984416  0.35036805  0.64710820     0.00500
C958        C  0.15124976  0.31831092  0.65292182    -0.11400
C959        C  0.17972430  0.30497915  0.62551133     0.02700
C960        C  0.17674344  0.32374135  0.59147261     0.00400
C961        C  0.14742020  0.35742973  0.58623722    -0.11300
C962        C  0.11951023  0.37120450  0.61385427     0.02600
H963        H  0.15129481  0.30183334  0.67822627     0.15600
H964        H  0.14518935  0.37208991  0.56019277     0.15600
C965        C  0.08876132  0.40515346  0.60691434     0.37200
C966        C  0.20820047  0.26933992  0.63199930     0.37100
N967        N  0.06393932  0.43221739  0.60133946    -0.43100
N968        N  0.23088392  0.24067003  0.63699256    -0.43100
C969        C  0.94222449  0.08316067  0.99152422     0.00500
C970        C  0.93743673  0.10902437  0.96150547    -0.11400
C971        C  0.90253754  0.13873548  0.95985984     0.02700
C972        C  0.87145992  0.14243248  0.98841910     0.00400
C973        C  0.87800000  0.11786997  0.51830804    -0.11300
C974        C  0.91303954  0.08852298  0.52012559     0.02600
H975        H  0.95945851  0.10459506  0.93866252     0.15600
H976        H  0.85491110  0.12126888  0.54067498     0.15600
C977        C  0.91795630  0.06396982  0.55223372     0.37200
C978        C  0.89730937  0.16317337  0.92774246     0.37100
N979        N  0.92215734  0.04427486  0.57791933    -0.43100
N980        N  0.89291050  0.18273016  0.90199675    -0.43100
C981        C  0.04685198  0.08608707  0.98355334     0.00500
C982        C  0.05161536  0.10958646  0.51320675    -0.11400
C983        C  0.08580478  0.13986983  0.51497031     0.02700
C984        C  0.11661053  0.14595126  0.98691264     0.00400
C985        C  0.10981052  0.12395543  0.95577880    -0.11300
C986        C  0.07499751  0.09456751  0.95375399     0.02600
H987        H  0.03053043  0.10278042  0.53633285     0.15600
H988        H  0.13231937  0.12926251  0.93318643     0.15600
C989        C  0.06977278  0.07221399  0.92125759     0.37200
C990        C  0.09146882  0.16184940  0.54758104     0.37100
N991        N  0.06541940  0.05416694  0.89531772    -0.43100
N992        N  0.09608990  0.17937410  0.57376902    -0.43100
C993        C  0.05336899  0.93543447  0.98671688     0.00500
C994        C  0.05251910  0.90698107  0.95919223    -0.11400
C995        C  0.08673340  0.87670751  0.95661055     0.02700
C996        C  0.12329015  0.87539136  0.98130599     0.00400
C997        C  0.12312481  0.90248130  0.50931397    -0.11300
C998        C  0.08840789  0.93178643  0.51246716     0.02600
H999        H  0.02616239  0.90936361  0.93897427     0.15600
H1000       H  0.15006279  0.90078833  0.52914650     0.15600
C1001       C  0.08962007  0.95836128  0.54273502     0.37200
C1002       C  0.08491082  0.84877180  0.92737264     0.37100
N1003       N  0.09078887  0.97961575  0.56697946    -0.43100
N1004       N  0.08347947  0.82632635  0.90396150    -0.43100
C1005       C  0.94589026  0.93271743  0.98130959     0.00500
C1006       C  0.95246630  0.89863056  0.50440659    -0.11400
C1007       C  0.92142434  0.86555986  0.50491816     0.02700
C1008       C  0.88164122  0.86714052  0.98284956     0.00400
C1009       C  0.87664448  0.90000529  0.95866356    -0.11300
C1010       C  0.90861911  0.93199412  0.95712500     0.02600
H1011       H  0.98053202  0.89884677  0.52325619     0.15600
H1012       H  0.84752933  0.90069744  0.94074298     0.15600
C1013       C  0.90178249  0.96414390  0.93067178     0.39600
C1014       C  0.92973441  0.83211625  0.52972173     0.37100
N1015       N  0.89602191  0.99001759  0.90967146    -0.43100
N1016       N  0.93717931  0.80535463  0.54950829    -0.43100
C1017       C  0.54575783  0.42895713  0.99403339     0.00500
C1018       C  0.55280233  0.40938186  0.96175466    -0.11400
C1019       C  0.58231029  0.37560493  0.95939831     0.02700
C1020       C  0.60541948  0.36035545  0.99016069     0.00400
C1021       C  0.59557477  0.37798785  0.52304267    -0.11300
C1022       C  0.56631711  0.41198601  0.52537818     0.02600
H1023       H  0.53633469  0.42153662  0.93796560     0.15600
H1024       H  0.61185148  0.36631738  0.54705027     0.15600
C1025       C  0.55875532  0.42996895  0.55962209     0.37200
C1026       C  0.58868329  0.35835410  0.92471034     0.37100
N1027       N  0.55275913  0.44423572  0.58714125    -0.43100
N1028       N  0.59374713  0.34490725  0.89675822    -0.43100
C1029       C  0.44379266  0.43059449  0.98727259     0.00500
C1030       C  0.43772100  0.40577545  0.51936065    -0.11400
C1031       C  0.40887763  0.37126681  0.51911261     0.02700
C1032       C  0.38527598  0.36077561  0.98679512     0.00400
C1033       C  0.39295554  0.38454026  0.95566280    -0.11300
C1034       C  0.42172116  0.41908623  0.95573512     0.02600
H1035       H  0.45518650  0.41386422  0.54365562     0.15600
H1036       H  0.37562886  0.37679486  0.93123682     0.15600
C1037       C  0.42835416  0.44224863  0.92306591     0.37200
C1038       C  0.40508829  0.34708217  0.55151571     0.37100
N1039       N  0.43389160  0.46077729  0.89689244    -0.43100
N1040       N  0.40197868  0.32762462  0.57744375    -0.43100
C1041       C  0.44735958  0.58342169  0.98548133     0.00500
C1042       C  0.43646534  0.60303683  0.51926499    -0.11400
C1043       C  0.40627831  0.63664698  0.51917088     0.02700
C1044       C  0.38584019  0.65116509  0.98538276     0.00400
C1045       C  0.39561413  0.63006319  0.95392001    -0.11300
C1046       C  0.42581693  0.59655653  0.95378916     0.02600
H1047       H  0.45009607  0.59132798  0.54425012     0.15600
H1048       H  0.37857886  0.63890347  0.92936746     0.15600
C1049       C  0.43373420  0.57575958  0.92084474     0.37200
C1050       C  0.39673430  0.65555368  0.55272438     0.37100
N1051       N  0.44007752  0.55932160  0.89432750    -0.43100
N1052       N  0.38928169  0.67068193  0.57967578    -0.43100
C1053       C  0.55093428  0.58034165  0.98951079     0.00500
C1054       C  0.55743297  0.60476149  0.51883193    -0.11400
C1055       C  0.59044519  0.63618375  0.51870121     0.02700
C1056       C  0.61930326  0.64246559  0.98948138     0.00400
C1057       C  0.60778366  0.62203432  0.95807093    -0.11300
C1058       C  0.57393929  0.59149800  0.95786099     0.02600
H1059       H  0.53678689  0.59907358  0.54238351     0.15600
H1060       H  0.62578290  0.62931081  0.93353330     0.15600
C1061       C  0.56395756  0.57138219  0.92492532     0.37200
C1062       C  0.59289074  0.66185282  0.54945922     0.37100
N1063       N  0.55586320  0.55545079  0.89846397    -0.43100
N1064       N  0.59459293  0.68259095  0.57402508    -0.43100
loop_ 
_geom_bond_atom_site_label_1 
_geom_bond_atom_site_label_2 
_geom_bond_distance 
_geom_bond_site_symmetry_2 
_ccdc_geom_bond_type 
C1            C2   1.414       .  A
C1            C6   1.408       .  A
C1          C509   1.488       .  S
C2          C535   1.405       .  A
C2          C521   1.485       .  S
C3            C4   1.403       .  A
C3          C534   1.404       .  A
C3            H8   1.085       .  S
C4            C5   1.411       .  A
C4         C1017   1.484       .  S
C5          C538   1.407       .  A
C5         C1029   1.489       .  S
C6          C537   1.407       .  A
C6            H7   1.084       .  S
C9           C10   1.421   1_455  A
C9           C14   1.405   1_565  A
C9          C461   1.493       .  S
C10          C11   1.409   1_565  A
C10         C473   1.496       .  S
C11          C12   1.402       .  A
C11          H16   1.085       .  S
C12          C13   1.409   1_655  A
C12         C437   1.487       .  S
C13          C14   1.402       .  A
C13         C449   1.483       .  S
C14          H15   1.085       .  S
O17         Zn23   2.032       .  S
O17         C565   1.276   1_554  A
C18         C428   1.476       .  S
C18          O34   1.273       .  A
C18          O31   1.273       .  A
O19          C32   1.277       .  A
O19        Cd558   2.092   1_554  S
O20          C38   1.274       .  A
O20         Cd29   2.073       .  S
O21          C35   1.274       .  A
O21         Cd25   2.065       .  S
O22          C33   1.277       .  A
O22         Cd25   2.085       .  S
Zn23         O34   2.021       .  S
Zn23         O36   2.010       .  S
Zn23        O560   1.936   1_554  S
O24          C35   1.273       .  A
O24         Cd29   2.059       .  S
Cd25         O27   2.061       .  S
Cd25         O28   1.996       .  S
Cd26         O30   2.096       .  S
Cd26         O39   2.084       .  S
Cd26        O551   2.092       .  S
Cd26         O28   2.012       .  S
O27          C37   1.274       .  A
O28        Zn555   1.935       .  S
O28         Cd29   2.002       .  S
Cd29        O563   2.061       .  S
O30          C37   1.278       .  A
O31        Cd561   2.060   1_554  S
C32         C401   1.498       .  S
C32          O36   1.276       .  A
C33         C500   1.500       .  S
C33         O549   1.276       .  A
C35         C413   1.471       .  S
C37         C389   1.497       .  S
C38         C452   1.476       .  S
C38          O39   1.277       .  A
O40         Zn46   2.019       .  S
O40          C56   1.274       .  A
C41         C488   1.498       .  S
C41          O54   1.274       .  A
C41         O589   1.277       .  A
O42          C55   1.276       .  A
O42        Cd581   2.086   1_554  S
O43          C61   1.274       .  A
O43         Cd52   2.054       .  S
O44          C58   1.273       .  A
O44         Cd48   2.059       .  S
O45          C56   1.272       .  A
O45        Cd580   2.057   1_554  S
Zn46         O57   2.040       .  S
Zn46         O59   2.005       .  S
Zn46        O583   1.941   1_554  S
O47          C58   1.274       .  A
O47         Cd52   2.072       .  S
Cd48         O50   2.079       .  S
Cd48        O577   2.059       .  S
Cd48         O51   2.000       .  S
Cd49         O53   2.084       .  S
Cd49         O62   2.097       .  S
Cd49        O574   2.088       .  S
Cd49         O51   2.013       .  S
O50          C60   1.275       .  A
O51        Zn578   1.940       .  S
O51         Cd52   1.990       .  S
Cd52         O54   2.068       .  S
O53          C60   1.277       .  A
C55         C341   1.493       .  S
C55          O59   1.275       .  A
C56         C365   1.468       .  S
O57         C573   1.277   1_554  A
C58         C377   1.471       .  S
C60         C440   1.479       .  S
C61         C353   1.481       .  S
C61          O62   1.278       .  A
O63         Zn69   2.028       .  S
O63         C611   1.274   1_554  A
C64         C329   1.472       .  S
C64          O80   1.273       .  A
C64          O77   1.273       .  A
O65          C78   1.278       .  A
O65        Cd604   2.092   1_554  S
O66          C84   1.272       .  A
O66         Cd75   2.070       .  S
O67          C81   1.276       .  A
O67         Cd71   2.072       .  S
O68          C79   1.275       .  A
O68         Cd71   2.073       .  S
Zn69         O80   2.030       .  S
Zn69         O82   1.992       .  S
Zn69        O606   1.946   1_554  S
O70          C81   1.276       .  A
O70         Cd75   2.065       .  S
Cd71         O73   2.071       .  S
Cd71         O74   2.003       .  S
Cd72         O76   2.094       .  S
Cd72         O85   2.094       .  S
Cd72        O597   2.093       .  S
Cd72         O74   2.013       .  S
O73          C83   1.275       .  A
O74        Zn601   1.946       .  S
O74         Cd75   1.997       .  S
Cd75        O609   2.059       .  S
O76          C83   1.278       .  A
O77        Cd607   2.060   1_554  S
C78         C305   1.488       .  S
C78          O82   1.274       .  A
C79         C524   1.497       .  S
C79         O595   1.275       .  A
C81         C317   1.482       .  S
C83         C293   1.486       .  S
C84         C476   1.488       .  S
C84          O85   1.279       .  A
O86         Zn92   2.031       .  S
O86         C102   1.276       .  A
C87         C512   1.502       .  S
C87         O100   1.274       .  A
C87         O635   1.277       .  A
O88         C101   1.277       .  A
O88        Cd627   2.083   1_554  S
O89         C107   1.275       .  A
O89         Cd98   2.052       .  S
O90         C104   1.273       .  A
O90         Cd94   2.062       .  S
O91         C102   1.275       .  A
O91        Cd626   2.066   1_554  S
Zn92        O103   2.051       .  S
Zn92        O105   2.034       .  S
Zn92        O629   1.953   1_554  S
O93         C104   1.273       .  A
O93         Cd98   2.067       .  S
Cd94         O96   2.066       .  S
Cd94        O623   2.068       .  S
Cd94         O97   2.003       .  S
Cd95         O99   2.092       .  S
Cd95        O108   2.096       .  S
Cd95        O620   2.082       .  S
Cd95         O97   2.013       .  S
O96         C106   1.272       .  A
O97        Zn624   1.951       .  S
O97         Cd98   1.997       .  S
Cd98        O100   2.073       .  S
O99         C106   1.278       .  A
C101        C245   1.501       .  S
C101        O105   1.278       .  A
C102        C272   1.478       .  S
O103        C619   1.278   1_554  A
C104        C281   1.467       .  S
C106        C464   1.483       .  S
C107        C257   1.488       .  S
C107        O108   1.278       .  A
N109        C114   1.352       .  A
N109        C113   1.353   1_655  A
N109        H141   1.042       .  S
N110        C117   1.350       .  A
N110        C118   1.348       .  A
N111        C116   1.354       .  A
N111        C115   1.352   1_655  A
N111        H142   1.041       .  S
N112        C119   1.348       .  A
N112        C120   1.350       .  A
C113        C121   1.388       .  A
C113        C129   1.414       .  A
C114        C130   1.410       .  A
C114        C122   1.386       .  A
C115        C123   1.388       .  A
C115        C132   1.415       .  A
C116        C131   1.413       .  A
C116        C124   1.386       .  A
C117        C129   1.410       .  A
C117        C125   1.385       .  A
C118        C132   1.411       .  A
C118        C126   1.387       .  A
C119        C127   1.386       .  A
C119        C130   1.408       .  A
C120        C128   1.385       .  A
C120        C131   1.409       .  A
C121        C122   1.372   1_455  A
C121        H133   1.082       .  S
C122        H134   1.082       .  S
C123        C124   1.374   1_455  A
C123        H135   1.082       .  S
C124        H136   1.082       .  S
C125        C126   1.376       .  A
C125        H137   1.082       .  S
C126        H138   1.082       .  S
C127        C128   1.375       .  A
C127        H139   1.082       .  S
C128        H140   1.082       .  S
C129        C425   1.493       .  S
C130        C368   1.483       .  S
C131        C380   1.491       .  S
C132        C416   1.487       .  S
N143        C148   1.353       .  A
N143        C147   1.352   1_455  A
N143        H175   1.034       .  S
N144        C151   1.350       .  A
N144        C152   1.352       .  A
N145        C150   1.351       .  A
N145        C149   1.353   1_455  A
N145        H176   1.036       .  S
N146        C153   1.353       .  A
N146        C154   1.351       .  A
C147        C155   1.387       .  A
C147        C163   1.414       .  A
C148        C164   1.413       .  A
C148        C156   1.386       .  A
C149        C157   1.386       .  A
C149        C166   1.415       .  A
C150        C165   1.411       .  A
C150        C158   1.387       .  A
C151        C163   1.411       .  A
C151        C159   1.386       .  A
C152        C166   1.414       .  A
C152        C160   1.387       .  A
C153        C161   1.386       .  A
C153        C164   1.413       .  A
C154        C162   1.386       .  A
C154        C165   1.412       .  A
C155        C156   1.375   1_655  A
C155        H167   1.082       .  S
C156        H168   1.083       .  S
C157        C158   1.377   1_655  A
C157        H169   1.083       .  S
C158        H170   1.082       .  S
C159        C160   1.373       .  A
C159        H171   1.082       .  S
C160        H172   1.081       .  S
C161        C162   1.374       .  A
C161        H173   1.082       .  S
C162        H174   1.082       .  S
C163        C332   1.482       .  S
C164        C269   1.490       .  S
C165        C284   1.484       .  S
C166        C320   1.496       .  S
N177        C182   1.353       .  A
N177        C181   1.351       .  A
N177        H209   1.036       .  S
N178        C185   1.350       .  A
N178        C186   1.353       .  A
N179        C184   1.349       .  A
N179        C183   1.351       .  A
N179        H210   1.036       .  S
N180        C187   1.354       .  A
N180        C188   1.352       .  A
C181        C189   1.387       .  A
C181        C197   1.414       .  A
C182        C198   1.413       .  A
C182        C190   1.386       .  A
C183        C191   1.385       .  A
C183        C200   1.411       .  A
C184        C199   1.411       .  A
C184        C192   1.388       .  A
C185        C197   1.414       .  A
C185        C193   1.387       .  A
C186        C200   1.412       .  A
C186        C194   1.385       .  A
C187        C195   1.385       .  A
C187        C198   1.415       .  A
C188        C196   1.386       .  A
C188        C199   1.415       .  A
C189        C190   1.376       .  A
C189        H201   1.082       .  S
C190        H202   1.082       .  S
C191        C192   1.377       .  A
C191        H203   1.082       .  S
C192        H204   1.083       .  S
C193        C194   1.375       .  A
C193        H205   1.082       .  S
C194        H206   1.082       .  S
C195        C196   1.375       .  A
C195        H207   1.082       .  S
C196        H208   1.082       .  S
C197        C308   1.484       .  S
C198        C248   1.494       .  S
C199        C260   1.485       .  S
C200        C296   1.491       .  S
N211        C216   1.350       .  A
N211        C215   1.350       .  A
N211        H243   1.038       .  S
N212        C219   1.353       .  A
N212        C220   1.351       .  A
N213        C218   1.352       .  A
N213        C217   1.352       .  A
N213        H244   1.038       .  S
N214        C221   1.353       .  A
N214        C222   1.353       .  A
C215        C223   1.387       .  A
C215        C231   1.413       .  A
C216        C232   1.409       .  A
C216        C224   1.386       .  A
C217        C225   1.387       .  A
C217        C234   1.413       .  A
C218        C233   1.412       .  A
C218        C226   1.387       .  A
C219        C231   1.415       .  A
C219        C227   1.386       .  A
C220        C234   1.414       .  A
C220        C228   1.386       .  A
C221        C229   1.385       .  A
C221        C232   1.415       .  A
C222        C230   1.386       .  A
C222        C233   1.416       .  A
C223        C224   1.376       .  A
C223        H235   1.083       .  S
C224        H236   1.082       .  S
C225        C226   1.376       .  A
C225        H237   1.082       .  S
C226        H238   1.082       .  S
C227        C228   1.376       .  A
C227        H239   1.082       .  S
C228        H240   1.082       .  S
C229        C230   1.376       .  A
C229        H241   1.082       .  S
C230        H242   1.082       .  S
C231        C356   1.492       .  S
C232        C392   1.489       .  S
C233        C404   1.491       .  S
C234        C344   1.487       .  S
C245        C246   1.409       .  A
C245        C250   1.423       .  A
C246        C247   1.401       .  A
C246        H251   1.084       .  S
C247        C248   1.409       .  A
C247        C254   1.445       .  S
C248        C249   1.402       .  A
C249        C250   1.407       .  A
C249        H252   1.085       .  S
C250        C253   1.444       .  S
C253        N255   1.157       .  T
C254        N256   1.157       .  T
C257        C258   1.406       .  A
C257        C262   1.418       .  A
C258        C259   1.393       .  A
C258        H263   1.085       .  S
C259        C260   1.408       .  A
C259        C266   1.446       .  S
C260        C261   1.402       .  A
C261        C262   1.407       .  A
C261        H264   1.084       .  S
C262        C265   1.443       .  S
C265        N267   1.157       .  T
C266        N268   1.157       .  T
C269        C270   1.402       .  A
C269        C274   1.410       .  A
C270        C271   1.397       .  A
C270        H275   1.085       .  S
C271        C272   1.413       .  A
C271        C278   1.445       .  S
C272        C273   1.406       .  A
C273        C274   1.404       .  A
C273        H276   1.085       .  S
C274        C277   1.442       .  S
C277        N279   1.157       .  T
C278        N280   1.157       .  T
C281        C282   1.399       .  A
C281        C286   1.410       .  A
C282        C283   1.394       .  A
C282        H287   1.085       .  S
C283        C284   1.411       .  A
C283        C290   1.445       .  S
C284        C285   1.404       .  A
C285        C286   1.404       .  A
C285        H288   1.084       .  S
C286        C289   1.444       .  S
C289        N291   1.157       .  T
C290        N292   1.157       .  T
C293        C294   1.407       .  A
C293        C298   1.415       .  A
C294        C295   1.405       .  A
C294        H299   1.084       .  S
C295        C296   1.408       .  A
C295        C302   1.442       .  S
C296        C297   1.403       .  A
C297        C298   1.400       .  A
C297        H300   1.085       .  S
C298        C301   1.445       .  S
C301        N303   1.157       .  T
C302        N304   1.157       .  T
C305        C306   1.408       .  A
C305        C310   1.418       .  A
C306        C307   1.394       .  A
C306        H311   1.085       .  S
C307        C308   1.407       .  A
C307        C314   1.446       .  S
C308        C309   1.402       .  A
C309        C310   1.406       .  A
C309        H312   1.084       .  S
C310        C313   1.443       .  S
C313        N315   1.157       .  T
C314        N316   1.157       .  T
C317        C318   1.403       .  A
C317        C322   1.414       .  A
C318        C319   1.395       .  A
C318        H323   1.085       .  S
C319        C320   1.414       .  A
C319        C326   1.445       .  S
C320        C321   1.406       .  A
C321        C322   1.405       .  A
C321        H324   1.084       .  S
C322        C325   1.444       .  S
C325        N327   1.157       .  T
C326        N328   1.157       .  T
C329        C330   1.404       .  A
C329        C334   1.410       .  A
C330        C331   1.404       .  A
C330        H335   1.084       .  S
C331        C332   1.409       .  A
C331        C338   1.443       .  S
C332        C333   1.400       .  A
C333        C334   1.395       .  A
C333        H336   1.085       .  S
C334        C337   1.444       .  S
C337        N339   1.157       .  T
C338        N340   1.157       .  T
C341        C342   1.408       .  A
C341        C346   1.420       .  A
C342        C343   1.395       .  A
C342        H347   1.084       .  S
C343        C344   1.407       .  A
C343        C350   1.445       .  S
C344        C345   1.402       .  A
C345        C346   1.406       .  A
C345        H348   1.085       .  S
C346        C349   1.444       .  S
C349        N351   1.157       .  T
C350        N352   1.157       .  T
C353        C354   1.407       .  A
C353        C358   1.413       .  A
C354        C355   1.406       .  A
C354        H359   1.084       .  S
C355        C356   1.410       .  A
C355        C362   1.442       .  S
C356        C357   1.403       .  A
C357        C358   1.395       .  A
C357        H360   1.085       .  S
C358        C361   1.445       .  S
C361        N363   1.157       .  T
C362        N364   1.157       .  T
C365        C366   1.400       .  A
C365        C370   1.410       .  A
C366        C367   1.395       .  A
C366        H371   1.085       .  S
C367        C368   1.409       .  A
C367        C374   1.443       .  S
C368        C369   1.403       .  A
C369        C370   1.401       .  A
C369        H372   1.085       .  S
C370        C373   1.443       .  S
C373        N375   1.157       .  T
C374        N376   1.156       .  T
C377        C378   1.400       .  A
C377        C382   1.409       .  A
C378        C379   1.397       .  A
C378        H383   1.085       .  S
C379        C380   1.412       .  A
C379        C386   1.441       .  S
C380        C381   1.405       .  A
C381        C382   1.401       .  A
C381        H384   1.085       .  S
C382        C385   1.443       .  S
C385        N387   1.157       .  T
C386        N388   1.156       .  T
C389        C390   1.412       .  A
C389        C394   1.421       .  A
C390        C391   1.407       .  A
C390        H395   1.084       .  S
C391        C392   1.407       .  A
C391        C398   1.442       .  S
C392        C393   1.399       .  A
C393        C394   1.397       .  A
C393        H396   1.086       .  S
C394        C397   1.445       .  S
C397        N399   1.157       .  T
C398        N400   1.157       .  T
C401        C402   1.409       .  A
C401        C406   1.422       .  A
C402        C403   1.396       .  A
C402        H407   1.084       .  S
C403        C404   1.408       .  A
C403        C410   1.445       .  S
C404        C405   1.402       .  A
C405        C406   1.408       .  A
C405        H408   1.085       .  S
C406        C409   1.443       .  S
C409        N411   1.157       .  T
C410        N412   1.157       .  T
C413        C414   1.402       .  A
C413        C418   1.410       .  A
C414        C415   1.397       .  A
C414        H419   1.085       .  S
C415        C416   1.411       .  A
C415        C422   1.445       .  S
C416        C417   1.404       .  A
C417        C418   1.400       .  A
C417        H420   1.085       .  S
C418        C421   1.444       .  S
C421        N423   1.157       .  T
C422        N424   1.157       .  T
C425        C426   1.404       .  A
C425        C430   1.413       .  A
C426        C427   1.400       .  A
C426        H431   1.085       .  S
C427        C428   1.412       .  A
C427        C434   1.445       .  S
C428        C429   1.403       .  A
C429        C430   1.401       .  A
C429        H432   1.085       .  S
C430        C433   1.444       .  S
C433        N435   1.157       .  T
C434        N436   1.157       .  T
C437        C438   1.404       .  A
C437        C974   1.412       .  A
C438        C439   1.405       .  A
C438        H443   1.085       .  S
C439        C440   1.412       .  A
C439        C446   1.444       .  S
C440        C973   1.402       .  A
C441        C442   1.400       .  A
C441        C972   1.402   1_554  A
C441        H444   1.085       .  S
C442        C969   1.413   1_554  A
C442        C445   1.444       .  S
C445        N447   1.157       .  T
C446        N448   1.157       .  T
C449        C454   1.412       .  A
C449        C982   1.404       .  A
C450        C451   1.405       .  A
C450        C981   1.404   1_554  A
C450        H455   1.085       .  S
C451        C984   1.412   1_554  A
C451        C458   1.444       .  S
C452        C453   1.401       .  A
C452        C983   1.412       .  A
C453        C454   1.399       .  A
C453        H456   1.085       .  S
C454        C457   1.445       .  S
C457        N459   1.157       .  T
C458        N460   1.157       .  T
C461        C462   1.404       .  A
C461        C998   1.417       .  A
C462        C463   1.407       .  A
C462        H467   1.084       .  S
C463        C464   1.415       .  A
C463        C470   1.443       .  S
C464        C997   1.400       .  A
C465        C466   1.398       .  A
C465        C996   1.399   1_554  A
C465        H468   1.085       .  S
C466        C993   1.418   1_554  A
C466        C469   1.445       .  S
C469        N471   1.157       .  T
C470        N472   1.157       .  T
C473        C478   1.419       .  A
C473       C1006   1.404       .  A
C474        C475   1.407       .  A
C474       C1005   1.404   1_554  A
C474        H479   1.084       .  S
C475       C1008   1.418   1_554  A
C475        C482   1.442       .  S
C476        C477   1.400       .  A
C476       C1007   1.418       .  A
C477        C478   1.398       .  A
C477        H480   1.085       .  S
C478        C481   1.446       .  S
C481        N483   1.157       .  T
C482        N484   1.157       .  T
C485        C486   1.399       .  A
C485       C1022   1.408       .  A
C485        C536   1.483       .  S
C486        C487   1.402       .  A
C486        H491   1.085       .  S
C487        C488   1.422       .  A
C487        C494   1.444       .  S
C488       C1021   1.410       .  A
C489        C490   1.403       .  A
C489       C1020   1.410   1_554  A
C489        H492   1.084       .  S
C490       C1017   1.408   1_554  A
C490        C493   1.444       .  S
C493        N495   1.157       .  T
C494        N496   1.157       .  T
C497        C502   1.409       .  A
C497       C1030   1.401       .  A
C497        C537   1.488       .  S
C498        C499   1.404       .  A
C498       C1029   1.401   1_554  A
C498        H503   1.085       .  S
C499       C1032   1.421   1_554  A
C499        C506   1.444       .  S
C500        C501   1.410       .  A
C500       C1031   1.421       .  A
C501        C502   1.404       .  A
C501        H504   1.084       .  S
C502        C505   1.444       .  S
C505        N507   1.157       .  T
C506        N508   1.157       .  T
C509        C514   1.408       .  A
C509       C1042   1.401       .  A
C510        C511   1.406       .  A
C510       C1041   1.403   1_554  A
C510        H515   1.084       .  S
C511       C1044   1.419   1_554  A
C511        C518   1.443       .  S
C512        C513   1.412       .  A
C512       C1043   1.420       .  A
C513        C514   1.404       .  A
C513        H516   1.084       .  S
C514        C517   1.444       .  S
C517        N519   1.157       .  T
C518        N520   1.157       .  T
C521        C526   1.409       .  A
C521       C1054   1.401       .  A
C522        C523   1.405       .  A
C522       C1053   1.400   1_554  A
C522        H527   1.084       .  S
C523       C1056   1.422   1_554  A
C523        C530   1.444       .  S
C524        C525   1.408       .  A
C524       C1055   1.421       .  A
C525        C526   1.401       .  A
C525        H528   1.084       .  S
C526        C529   1.445       .  S
C529        N531   1.157       .  T
C530        N532   1.157       .  T
C533        C534   1.414       .  A
C533        C538   1.408       .  A
C533       C1041   1.489       .  S
C534       C1053   1.484       .  S
C535        C536   1.402       .  A
C535        H540   1.085       .  S
C536        C537   1.411       .  A
C538        H539   1.084       .  S
C541        C542   1.421   1_455  A
C541        C546   1.405   1_565  A
C541        C993   1.494       .  S
C542        C543   1.408   1_565  A
C542       C1005   1.496       .  S
C543        C544   1.402       .  A
C543        H548   1.085       .  S
C544        C545   1.409   1_655  A
C544        C969   1.487       .  S
C545        C546   1.402       .  A
C545        C981   1.484       .  S
C546        H547   1.085       .  S
O549       Zn555   2.031       .  S
C550        C960   1.475       .  S
C550        O566   1.273       .  A
C550        O563   1.273       .  A
O551        C564   1.277       .  A
O552        C570   1.273       .  A
O552       Cd561   2.072       .  S
O553        C567   1.274       .  A
O553       Cd557   2.065       .  S
O554        C565   1.277       .  A
O554       Cd557   2.085       .  S
Zn555       O566   2.019       .  S
Zn555       O568   2.009       .  S
O556        C567   1.273       .  A
O556       Cd561   2.058       .  S
Cd557       O559   2.061       .  S
Cd557       O560   1.996       .  S
Cd558       O562   2.097       .  S
Cd558       O571   2.085       .  S
Cd558       O560   2.012       .  S
O559        C569   1.274       .  A
O560       Cd561   2.001       .  S
O562        C569   1.278       .  A
C564        C933   1.498       .  S
C564        O568   1.276       .  A
C565       C1032   1.500       .  S
C567        C945   1.471       .  S
C569        C921   1.497       .  S
C570        C984   1.476       .  S
C570        O571   1.277       .  A
O572       Zn578   2.014       .  S
O572        C588   1.273       .  A
C573       C1020   1.498       .  S
C573        O586   1.273       .  A
O574        C587   1.276       .  A
O575        C593   1.273       .  A
O575       Cd584   2.052       .  S
O576        C590   1.273       .  A
O576       Cd580   2.058       .  S
O577        C588   1.272       .  A
Zn578       O589   2.036       .  S
Zn578       O591   2.002       .  S
O579        C590   1.274       .  A
O579       Cd584   2.069       .  S
Cd580       O582   2.077       .  S
Cd580       O583   1.999       .  S
Cd581       O585   2.085       .  S
Cd581       O594   2.099       .  S
Cd581       O583   2.013       .  S
O582        C592   1.275       .  A
O583       Cd584   1.990       .  S
Cd584       O586   2.066       .  S
O585        C592   1.277       .  A
C587        C873   1.492       .  S
C587        O591   1.274       .  A
C588        C897   1.467       .  S
C590        C909   1.470       .  S
C592        C972   1.479       .  S
C593        C885   1.481       .  S
C593        O594   1.279       .  A
O595       Zn601   2.030       .  S
C596        C861   1.472       .  S
C596        O612   1.274       .  A
C596        O609   1.273       .  A
O597        C610   1.278       .  A
O598        C616   1.272       .  A
O598       Cd607   2.069       .  S
O599        C613   1.276       .  A
O599       Cd603   2.071       .  S
O600        C611   1.275       .  A
O600       Cd603   2.074       .  S
Zn601       O612   2.032       .  S
Zn601       O614   1.994       .  S
O602        C613   1.277       .  A
O602       Cd607   2.066       .  S
Cd603       O605   2.069       .  S
Cd603       O606   2.002       .  S
Cd604       O608   2.094       .  S
Cd604       O617   2.095       .  S
Cd604       O606   2.013       .  S
O605        C615   1.275       .  A
O606       Cd607   1.997       .  S
O608        C615   1.278       .  A
C610        C837   1.488       .  S
C610        O614   1.274       .  A
C611       C1056   1.499       .  S
C613        C849   1.482       .  S
C615        C825   1.487       .  S
C616       C1008   1.488       .  S
C616        O617   1.279       .  A
O618       Zn624   2.032       .  S
O618        C634   1.276       .  A
C619       C1044   1.499       .  S
C619        O632   1.274       .  A
O620        C633   1.276       .  A
O621        C639   1.275       .  A
O621       Cd630   2.051       .  S
O622        C636   1.273       .  A
O622       Cd626   2.062       .  S
O623        C634   1.275       .  A
Zn624       O635   2.050       .  S
Zn624       O637   2.035       .  S
O625        C636   1.273       .  A
O625       Cd630   2.066       .  S
Cd626       O628   2.065       .  S
Cd626       O629   2.002       .  S
Cd627       O631   2.094       .  S
Cd627       O640   2.097       .  S
Cd627       O629   2.013       .  S
O628        C638   1.272       .  A
O629       Cd630   1.995       .  S
Cd630       O632   2.070       .  S
O631        C638   1.278       .  A
C633        C777   1.501       .  S
C633        O637   1.278       .  A
C634        C804   1.479       .  S
C636        C813   1.467       .  S
C638        C996   1.483       .  S
C639        C789   1.488       .  S
C639        O640   1.278       .  A
N641        C646   1.352       .  A
N641        C645   1.353   1_655  A
N641        H673   1.042       .  S
N642        C649   1.350       .  A
N642        C650   1.348       .  A
N643        C648   1.354       .  A
N643        C647   1.352   1_655  A
N643        H674   1.041       .  S
N644        C651   1.348       .  A
N644        C652   1.350       .  A
C645        C653   1.388       .  A
C645        C661   1.413       .  A
C646        C662   1.410       .  A
C646        C654   1.387       .  A
C647        C655   1.388       .  A
C647        C664   1.415       .  A
C648        C663   1.414       .  A
C648        C656   1.386       .  A
C649        C661   1.409       .  A
C649        C657   1.385       .  A
C650        C664   1.411       .  A
C650        C658   1.387       .  A
C651        C659   1.386       .  A
C651        C662   1.408       .  A
C652        C660   1.385       .  A
C652        C663   1.409       .  A
C653        C654   1.372   1_455  A
C653        H665   1.082       .  S
C654        H666   1.082       .  S
C655        C656   1.373   1_455  A
C655        H667   1.082       .  S
C656        H668   1.082       .  S
C657        C658   1.376       .  A
C657        H669   1.082       .  S
C658        H670   1.082       .  S
C659        C660   1.375       .  A
C659        H671   1.082       .  S
C660        H672   1.082       .  S
C661        C957   1.492       .  S
C662        C900   1.483       .  S
C663        C912   1.490       .  S
C664        C948   1.487       .  S
N675        C680   1.353       .  A
N675        C679   1.352   1_455  A
N675        H707   1.034       .  S
N676        C683   1.350       .  A
N676        C684   1.352       .  A
N677        C682   1.351       .  A
N677        C681   1.353   1_455  A
N677        H708   1.036       .  S
N678        C685   1.353       .  A
N678        C686   1.351       .  A
C679        C687   1.387       .  A
C679        C695   1.413       .  A
C680        C696   1.413       .  A
C680        C688   1.386       .  A
C681        C689   1.386       .  A
C681        C698   1.414       .  A
C682        C697   1.411       .  A
C682        C690   1.387       .  A
C683        C695   1.411       .  A
C683        C691   1.386       .  A
C684        C698   1.414       .  A
C684        C692   1.387       .  A
C685        C693   1.386       .  A
C685        C696   1.413       .  A
C686        C694   1.386       .  A
C686        C697   1.412       .  A
C687        C688   1.375   1_655  A
C687        H699   1.082       .  S
C688        H700   1.083       .  S
C689        C690   1.377   1_655  A
C689        H701   1.083       .  S
C690        H702   1.082       .  S
C691        C692   1.373       .  A
C691        H703   1.082       .  S
C692        H704   1.081       .  S
C693        C694   1.374       .  A
C693        H705   1.082       .  S
C694        H706   1.082       .  S
C695        C864   1.482       .  S
C696        C801   1.490       .  S
C697        C816   1.484       .  S
C698        C852   1.496       .  S
N709        C714   1.353       .  A
N709        C713   1.352       .  A
N709        H741   1.036       .  S
N710        C717   1.350       .  A
N710        C718   1.353       .  A
N711        C716   1.349       .  A
N711        C715   1.351       .  A
N711        H742   1.036       .  S
N712        C719   1.354       .  A
N712        C720   1.353       .  A
C713        C721   1.387       .  A
C713        C729   1.414       .  A
C714        C730   1.413       .  A
C714        C722   1.386       .  A
C715        C723   1.385       .  A
C715        C732   1.411       .  A
C716        C731   1.411       .  A
C716        C724   1.388       .  A
C717        C729   1.414       .  A
C717        C725   1.387       .  A
C718        C732   1.412       .  A
C718        C726   1.385       .  A
C719        C727   1.386       .  A
C719        C730   1.416       .  A
C720        C728   1.386       .  A
C720        C731   1.415       .  A
C721        C722   1.376       .  A
C721        H733   1.082       .  S
C722        H734   1.082       .  S
C723        C724   1.377       .  A
C723        H735   1.082       .  S
C724        H736   1.083       .  S
C725        C726   1.375       .  A
C725        H737   1.082       .  S
C726        H738   1.082       .  S
C727        C728   1.375       .  A
C727        H739   1.082       .  S
C728        H740   1.082       .  S
C729        C840   1.485       .  S
C730        C780   1.495       .  S
C731        C792   1.485       .  S
C732        C828   1.490       .  S
N743        C748   1.350       .  A
N743        C747   1.350       .  A
N743        H775   1.038       .  S
N744        C751   1.352       .  A
N744        C752   1.351       .  A
N745        C750   1.352       .  A
N745        C749   1.352       .  A
N745        H776   1.037       .  S
N746        C753   1.354       .  A
N746        C754   1.353       .  A
C747        C755   1.387       .  A
C747        C763   1.413       .  A
C748        C764   1.409       .  A
C748        C756   1.386       .  A
C749        C757   1.387       .  A
C749        C766   1.413       .  A
C750        C765   1.413       .  A
C750        C758   1.387       .  A
C751        C763   1.414       .  A
C751        C759   1.386       .  A
C752        C766   1.414       .  A
C752        C760   1.386       .  A
C753        C761   1.385       .  A
C753        C764   1.415       .  A
C754        C762   1.386       .  A
C754        C765   1.416       .  A
C755        C756   1.376       .  A
C755        H767   1.083       .  S
C756        H768   1.082       .  S
C757        C758   1.376       .  A
C757        H769   1.082       .  S
C758        H770   1.082       .  S
C759        C760   1.376       .  A
C759        H771   1.082       .  S
C760        H772   1.082       .  S
C761        C762   1.376       .  A
C761        H773   1.082       .  S
C762        H774   1.082       .  S
C763        C888   1.492       .  S
C764        C924   1.489       .  S
C765        C936   1.491       .  S
C766        C876   1.487       .  S
C777        C778   1.409       .  A
C777        C782   1.423       .  A
C778        C779   1.400       .  A
C778        H783   1.084       .  S
C779        C780   1.410       .  A
C779        C786   1.445       .  S
C780        C781   1.402       .  A
C781        C782   1.407       .  A
C781        H784   1.085       .  S
C782        C785   1.444       .  S
C785        N787   1.158       .  T
C786        N788   1.157       .  T
C789        C790   1.406       .  A
C789        C794   1.418       .  A
C790        C791   1.393       .  A
C790        H795   1.085       .  S
C791        C792   1.408       .  A
C791        C798   1.446       .  S
C792        C793   1.402       .  A
C793        C794   1.407       .  A
C793        H796   1.084       .  S
C794        C797   1.443       .  S
C797        N799   1.157       .  T
C798        N800   1.157       .  T
C801        C802   1.402       .  A
C801        C806   1.410       .  A
C802        C803   1.397       .  A
C802        H807   1.085       .  S
C803        C804   1.413       .  A
C803        C810   1.445       .  S
C804        C805   1.406       .  A
C805        C806   1.405       .  A
C805        H808   1.085       .  S
C806        C809   1.442       .  S
C809        N811   1.157       .  T
C810        N812   1.157       .  T
C813        C814   1.399       .  A
C813        C818   1.410       .  A
C814        C815   1.394       .  A
C814        H819   1.085       .  S
C815        C816   1.411       .  A
C815        C822   1.445       .  S
C816        C817   1.404       .  A
C817        C818   1.404       .  A
C817        H820   1.084       .  S
C818        C821   1.444       .  S
C821        N823   1.157       .  T
C822        N824   1.157       .  T
C825        C826   1.407       .  A
C825        C830   1.416       .  A
C826        C827   1.405       .  A
C826        H831   1.084       .  S
C827        C828   1.408       .  A
C827        C834   1.441       .  S
C828        C829   1.402       .  A
C829        C830   1.400       .  A
C829        H832   1.085       .  S
C830        C833   1.445       .  S
C833        N835   1.158       .  T
C834        N836   1.157       .  T
C837        C838   1.407       .  A
C837        C842   1.418       .  A
C838        C839   1.394       .  A
C838        H843   1.085       .  S
C839        C840   1.407       .  A
C839        C846   1.445       .  S
C840        C841   1.402       .  A
C841        C842   1.406       .  A
C841        H844   1.084       .  S
C842        C845   1.443       .  S
C845        N847   1.157       .  T
C846        N848   1.157       .  T
C849        C850   1.403       .  A
C849        C854   1.415       .  A
C850        C851   1.395       .  A
C850        H855   1.085       .  S
C851        C852   1.414       .  A
C851        C858   1.444       .  S
C852        C853   1.406       .  A
C853        C854   1.405       .  A
C853        H856   1.084       .  S
C854        C857   1.444       .  S
C857        N859   1.157       .  T
C858        N860   1.157       .  T
C861        C862   1.405       .  A
C861        C866   1.410       .  A
C862        C863   1.405       .  A
C862        H867   1.084       .  S
C863        C864   1.409       .  A
C863        C870   1.443       .  S
C864        C865   1.400       .  A
C865        C866   1.395       .  A
C865        H868   1.085       .  S
C866        C869   1.444       .  S
C869        N871   1.157       .  T
C870        N872   1.157       .  T
C873        C874   1.408       .  A
C873        C878   1.420       .  A
C874        C875   1.395       .  A
C874        H879   1.084       .  S
C875        C876   1.407       .  A
C875        C882   1.445       .  S
C876        C877   1.402       .  A
C877        C878   1.406       .  A
C877        H880   1.085       .  S
C878        C881   1.444       .  S
C881        N883   1.157       .  T
C882        N884   1.157       .  T
C885        C886   1.407       .  A
C885        C890   1.413       .  A
C886        C887   1.406       .  A
C886        H891   1.084       .  S
C887        C888   1.410       .  A
C887        C894   1.442       .  S
C888        C889   1.403       .  A
C889        C890   1.395       .  A
C889        H892   1.085       .  S
C890        C893   1.445       .  S
C893        N895   1.157       .  T
C894        N896   1.157       .  T
C897        C898   1.400       .  A
C897        C902   1.410       .  A
C898        C899   1.394       .  A
C898        H903   1.085       .  S
C899        C900   1.409       .  A
C899        C906   1.442       .  S
C900        C901   1.403       .  A
C901        C902   1.401       .  A
C901        H904   1.085       .  S
C902        C905   1.443       .  S
C905        N907   1.157       .  T
C906        N908   1.156       .  T
C909        C910   1.399       .  A
C909        C914   1.409       .  A
C910        C911   1.397       .  A
C910        H915   1.085       .  S
C911        C912   1.412       .  A
C911        C918   1.441       .  S
C912        C913   1.405       .  A
C913        C914   1.401       .  A
C913        H916   1.085       .  S
C914        C917   1.443       .  S
C917        N919   1.157       .  T
C918        N920   1.156       .  T
C921        C922   1.412       .  A
C921        C926   1.420       .  A
C922        C923   1.407       .  A
C922        H927   1.084       .  S
C923        C924   1.407       .  A
C923        C930   1.442       .  S
C924        C925   1.399       .  A
C925        C926   1.397       .  A
C925        H928   1.086       .  S
C926        C929   1.445       .  S
C929        N931   1.157       .  T
C930        N932   1.157       .  T
C933        C934   1.409       .  A
C933        C938   1.422       .  A
C934        C935   1.396       .  A
C934        H939   1.084       .  S
C935        C936   1.408       .  A
C935        C942   1.445       .  S
C936        C937   1.402       .  A
C937        C938   1.408       .  A
C937        H940   1.085       .  S
C938        C941   1.443       .  S
C941        N943   1.157       .  T
C942        N944   1.157       .  T
C945        C946   1.402       .  A
C945        C950   1.410       .  A
C946        C947   1.397       .  A
C946        H951   1.085       .  S
C947        C948   1.412       .  A
C947        C954   1.445       .  S
C948        C949   1.404       .  A
C949        C950   1.400       .  A
C949        H952   1.085       .  S
C950        C953   1.444       .  S
C953        N955   1.157       .  T
C954        N956   1.157       .  T
C957        C958   1.404       .  A
C957        C962   1.413       .  A
C958        C959   1.399       .  A
C958        H963   1.085       .  S
C959        C960   1.412       .  A
C959        C966   1.445       .  S
C960        C961   1.403       .  A
C961        C962   1.400       .  A
C961        H964   1.085       .  S
C962        C965   1.444       .  S
C965        N967   1.157       .  T
C966        N968   1.157       .  T
C969        C970   1.404       .  A
C970        C971   1.405       .  A
C970        H975   1.085       .  S
C971        C972   1.412       .  A
C971        C978   1.444       .  S
C973        C974   1.400       .  A
C973        H976   1.085       .  S
C974        C977   1.444       .  S
C977        N979   1.157       .  T
C978        N980   1.157       .  T
C981        C986   1.412       .  A
C982        C983   1.405       .  A
C982        H987   1.085       .  S
C983        C990   1.443       .  S
C984        C985   1.400       .  A
C985        C986   1.398       .  A
C985        H988   1.085       .  S
C986        C989   1.445       .  S
C989        N991   1.157       .  T
C990        N992   1.157       .  T
C993        C994   1.404       .  A
C994        C995   1.408       .  A
C994        H999   1.084       .  S
C995        C996   1.416       .  A
C995       C1002   1.443       .  S
C997        C998   1.398       .  A
C997       H1000   1.085       .  S
C998       C1001   1.445       .  S
C1001      N1003   1.157       .  T
C1002      N1004   1.157       .  T
C1005      C1010   1.419       .  A
C1006      C1007   1.407       .  A
C1006      H1011   1.084       .  S
C1007      C1014   1.442       .  S
C1008      C1009   1.400       .  A
C1009      C1010   1.399       .  A
C1009      H1012   1.085       .  S
C1010      C1013   1.446       .  S
C1013      N1015   1.157       .  T
C1014      N1016   1.157       .  T
C1017      C1018   1.399       .  A
C1018      C1019   1.401       .  A
C1018      H1023   1.085       .  S
C1019      C1020   1.422       .  A
C1019      C1026   1.444       .  S
C1021      C1022   1.403       .  A
C1021      H1024   1.084       .  S
C1022      C1025   1.444       .  S
C1025      N1027   1.157       .  T
C1026      N1028   1.157       .  T
C1029      C1034   1.409       .  A
C1030      C1031   1.404       .  A
C1030      H1035   1.085       .  S
C1031      C1038   1.444       .  S
C1032      C1033   1.410       .  A
C1033      C1034   1.404       .  A
C1033      H1036   1.084       .  S
C1034      C1037   1.444       .  S
C1037      N1039   1.157       .  T
C1038      N1040   1.157       .  T
C1041      C1046   1.409       .  A
C1042      C1043   1.405       .  A
C1042      H1047   1.085       .  S
C1043      C1050   1.443       .  S
C1044      C1045   1.410       .  A
C1045      C1046   1.403       .  A
C1045      H1048   1.084       .  S
C1046      C1049   1.444       .  S
C1049      N1051   1.157       .  T
C1050      N1052   1.157       .  T
C1053      C1058   1.408       .  A
C1054      C1055   1.405       .  A
C1054      H1059   1.084       .  S
C1055      C1062   1.444       .  S
C1056      C1057   1.410       .  A
C1057      C1058   1.401       .  A
C1057      H1060   1.084       .  S
C1058      C1061   1.444       .  S
C1061      N1063   1.157       .  T
C1062      N1064   1.157       .  T
