geometry optimzed in LAMMPS
_audit_creation_date              2020-11-30 
_audit_creation_method            'lammps2cif' 
_symmetry_space_group_name_H-M    'P1' 
_symmetry_Int_Tables_number       1 
_symmetry_cell_setting            triclinic 
loop_ 
_symmetry_equiv_pos_as_xyz 
  x,y,z 
_cell_length_a                    66.68198346 
_cell_length_b                    44.499159845629215 
_cell_length_c                    47.48238302140487 
_cell_angle_alpha                 89.8099247258673 
_cell_angle_beta                  89.73732006856406 
_cell_angle_gamma                 89.67085598381807 
loop_ 
_atom_site_label 
_atom_site_type_symbol 
_atom_site_fract_x 
_atom_site_fract_y 
_atom_site_fract_z 
_atom_site_charge 
Zn1        Zn  0.61331152  0.42415838  0.33952757     1.49700
Zn2        Zn  0.61508961  0.35220835  0.33623164     1.49400
Zn3        Zn  0.64857331  0.39114684  0.30457857     1.49100
Zn4        Zn  0.64791276  0.38715182  0.37184198     1.49500
O5          O  0.63118704  0.38883195  0.33803149    -1.84300
O6          O  0.58394630  0.41146356  0.34000823    -0.74900
O7          O  0.62095035  0.32935848  0.30068569    -0.74700
O8          O  0.64300258  0.42870331  0.28216433    -0.74300
O9          O  0.58561324  0.36168255  0.33689416    -0.74900
O10         O  0.61848465  0.45168099  0.30587005    -0.74500
O11         O  0.64417309  0.35610592  0.27848566    -0.75100
O12         O  0.67754054  0.38650839  0.36200713    -0.74500
O13         O  0.62040149  0.32455763  0.36912973    -0.75300
O14         O  0.67781591  0.39095209  0.31539022    -0.74700
O15         O  0.64222083  0.34992176  0.39478649    -0.75100
O16         O  0.64260813  0.42312869  0.39644206    -0.75000
O17         O  0.61834773  0.44847602  0.37475239    -0.74800
C18         C  0.57544309  0.38588750  0.33858543     0.77000
C19         C  0.63276095  0.33331961  0.27986675     0.77500
C20         C  0.63066421  0.45040608  0.28508136     0.76400
C21         C  0.68703327  0.38868578  0.33874490     0.76800
C22         C  0.63143296  0.32681748  0.39081784     0.77900
C23         C  0.63047905  0.44532241  0.39522268     0.77000
C24         C  0.58635680  0.14160720  0.11595327     0.86300
C25         C  0.59327769  0.17000586  0.13134805    -0.53900
C26         C  0.61254702  0.16890521  0.14104890     0.09300
C27         C  0.62361238  0.13963265  0.13310319     0.20200
C28         C  0.60193678  0.13863599  0.09197997    -0.54600
C29         C  0.62151938  0.13770949  0.10061971     0.09400
C30         C  0.59111426  0.11536379  0.13583613    -0.54200
C31         C  0.61036685  0.11440045  0.14527488     0.09900
H32         H  0.58358585  0.18939733  0.13456592     0.14400
H33         H  0.63916963  0.13874910  0.14092316     0.00200
H34         H  0.59798222  0.13931836  0.07003327     0.14700
H35         H  0.57989825  0.09915909  0.14246544     0.14500
C36         C  0.67399249  0.13648627  0.06469156     0.86300
C37         C  0.66810889  0.16294746  0.04516250    -0.53900
C38         C  0.64873901  0.16270203  0.03635907     0.09300
C39         C  0.63663878  0.13604215  0.04777071     0.20200
C40         C  0.65853029  0.13787444  0.08875861    -0.54600
C41         C  0.63886597  0.13728275  0.08031703     0.09400
C42         C  0.66826461  0.10868225  0.04743352    -0.54200
C43         C  0.64880001  0.10829219  0.03883451     0.09900
H44         H  0.67819810  0.17973600  0.03673750     0.14400
H45         H  0.62119497  0.13564485  0.03938235     0.00200
H46         H  0.66319926  0.13901227  0.11052766     0.14700
H47         H  0.67892070  0.09113497  0.04171408     0.14500
Zn48       Zn  0.86277312  0.08253256  0.07803183     1.49700
Zn49       Zn  0.89773695  0.11940411  0.04674571     1.49400
Zn50       Zn  0.86263845  0.15403480  0.08028051     1.49100
Zn51       Zn  0.89599283  0.11753169  0.11434052     1.49500
O52         O  0.87985955  0.11830992  0.07980167    -1.84300
O53         O  0.86803268  0.05883274  0.04246303    -0.74900
O54         O  0.89161829  0.15619615  0.02257595    -0.74700
O55         O  0.83331682  0.14309585  0.08275726    -0.74300
O56         O  0.89342486  0.08283893  0.02213350    -0.74900
O57         O  0.83327260  0.09331097  0.07980234    -0.74500
O58         O  0.86696833  0.17935271  0.04549468    -0.75100
O59         O  0.89055019  0.15405519  0.13907967    -0.74500
O60         O  0.92717633  0.11971553  0.05852440    -0.75300
O61         O  0.86826297  0.17970382  0.11392546    -0.74700
O62         O  0.92554842  0.11693588  0.10506347    -0.75100
O63         O  0.89036684  0.07994671  0.13677362    -0.75000
O64         O  0.86828176  0.05511629  0.11095610    -0.74800
C65         C  0.88085548  0.06134950  0.02263047     0.77000
C66         C  0.87883369  0.17758406  0.02447269     0.77500
C67         C  0.82395287  0.11825356  0.08202436     0.76400
C68         C  0.87910711  0.17684162  0.13574945     0.76800
C69         C  0.93582401  0.11830830  0.08245342     0.77900
C70         C  0.87943424  0.05703668  0.13257505     0.77000
C71         C  0.92296706  0.36611386  0.35773933     0.86300
C72         C  0.91571641  0.34154324  0.37845352    -0.53900
C73         C  0.89622385  0.34443021  0.38657775     0.09300
C74         C  0.88525400  0.37097831  0.37298554     0.20200
C75         C  0.90800984  0.36394026  0.33311753    -0.54600
C76         C  0.88819720  0.36680162  0.34086299     0.09400
C77         C  0.91760511  0.39564904  0.37279343    -0.54200
C78         C  0.89794613  0.39840145  0.38046983     0.09900
H79         H  0.92452557  0.32332658  0.38686801     0.14400
H80         H  0.86959329  0.37327663  0.38045172     0.00200
H81         H  0.91291334  0.36029070  0.31161836     0.14700
H82         H  0.92871726  0.41246349  0.37800668     0.14500
C83         C  0.83606588  0.36638977  0.30518104     0.86300
C84         C  0.84245185  0.34058121  0.28526009    -0.53900
C85         C  0.86188908  0.34203432  0.27637595     0.09300
C86         C  0.87344654  0.36909548  0.28799392     0.20200
C87         C  0.85153133  0.36460788  0.32894874    -0.54600
C88         C  0.87114549  0.36660464  0.32041845     0.09400
C89         C  0.84125765  0.39490420  0.28842960    -0.54200
C90         C  0.86070683  0.39665108  0.27960536     0.09900
H91         H  0.83295956  0.32261760  0.27794467     0.14400
H92         H  0.88908893  0.37033632  0.28011913     0.00200
H93         H  0.84689215  0.36164751  0.35064805     0.14700
H94         H  0.83009919  0.41180666  0.28296642     0.14500
Zn95       Zn  0.39645305  0.16191968  0.09249316     1.49700
Zn96       Zn  0.39918121  0.08976935  0.09279373     1.49400
Zn97       Zn  0.36493252  0.12392120  0.12893507     1.49100
Zn98       Zn  0.36314897  0.12231417  0.06113693     1.49500
O99         O  0.38090339  0.12449729  0.09395284    -1.84300
O100        O  0.42612895  0.15306614  0.09164206    -0.74900
O101        O  0.39556266  0.06392935  0.12766489    -0.74700
O102        O  0.37037512  0.16086533  0.15316009    -0.74300
O103        O  0.42798925  0.10326205  0.09031163    -0.74900
O104        O  0.39032266  0.18871225  0.12613106    -0.74500
O105        O  0.37127250  0.08647087  0.15203732    -0.75100
O106        O  0.33391530  0.12438046  0.07295147    -0.74500
O107        O  0.39417207  0.06326733  0.05889069    -0.75300
O108        O  0.33517499  0.12451977  0.11971265    -0.74700
O109        O  0.36774307  0.08420405  0.03860444    -0.75100
O110        O  0.36849980  0.15694387  0.03471941    -0.75000
O111        O  0.39101378  0.18497069  0.05666537    -0.74800
C112        C  0.43638309  0.12891975  0.08991817     0.77000
C113        C  0.38396928  0.06511870  0.14907484     0.77500
C114        C  0.38015398  0.18499542  0.14869100     0.76400
C115        C  0.32516619  0.12529166  0.09687492     0.76800
C116        C  0.38089047  0.06331518  0.03971761     0.77900
C117        C  0.37970932  0.17998985  0.03567775     0.77000
C118        C  0.42488711  0.38060463  0.31975554     0.86300
C119        C  0.41766208  0.40610442  0.30001497    -0.53900
C120        C  0.39861263  0.40290875  0.29053368     0.09300
C121        C  0.38818099  0.37441834  0.30112133     0.20200
C122        C  0.40882577  0.37959774  0.34316253    -0.54600
C123        C  0.38947454  0.37650143  0.33372262     0.09400
C124        C  0.42150305  0.35215636  0.30214879    -0.54200
C125        C  0.40241362  0.34858842  0.29255286     0.09900
H126        H  0.42653880  0.42467275  0.29238781     0.14400
H127        H  0.37301234  0.37191745  0.29213826     0.00200
H128        H  0.41275811  0.38183686  0.36514886     0.14700
H129        H  0.43349568  0.33648881  0.29691588     0.14500
C130        C  0.33597362  0.37173062  0.36584705     0.86300
C131        C  0.33983009  0.39687770  0.38704941    -0.53900
C132        C  0.35875988  0.39758643  0.39760419     0.09300
C133        C  0.37262257  0.37276224  0.38554335     0.20200
C134        C  0.35216217  0.37554288  0.34310797    -0.54600
C135        C  0.37149439  0.37569960  0.35296416     0.09400
C136        C  0.34236205  0.34303177  0.38204401    -0.54200
C137        C  0.36143898  0.34347594  0.39232041     0.09900
H138        H  0.32824034  0.41255874  0.39378162     0.14400
H139        H  0.38794877  0.37306845  0.39431559     0.00200
H140        H  0.34823573  0.37748709  0.32109267     0.14700
H141        H  0.33269177  0.32429921  0.38691276     0.14500
Zn142      Zn  0.11174443  0.42230937  0.34509265     1.49700
Zn143      Zn  0.14688622  0.38628055  0.37710940     1.49400
Zn144      Zn  0.11390185  0.35066067  0.34191550     1.49100
Zn145      Zn  0.14695027  0.39061208  0.31000056     1.49500
O146        O  0.12984771  0.38749368  0.34353439    -1.84300
O147        O  0.11687118  0.44610344  0.38036593    -0.74900
O148        O  0.14120580  0.34930729  0.40047981    -0.74700
O149        O  0.08432007  0.36006390  0.34192444    -0.74300
O150        O  0.14224860  0.42280853  0.40153834    -0.74900
O151        O  0.08248520  0.40979371  0.34419127    -0.74500
O152        O  0.11945918  0.32347289  0.37534576    -0.75100
O153        O  0.14157930  0.35653154  0.28337812    -0.74500
O154        O  0.17625460  0.38459517  0.36660841    -0.75300
O155        O  0.11954903  0.32791901  0.30611949    -0.74700
O156        O  0.17631653  0.38808603  0.31998543    -0.75100
O157        O  0.14190202  0.42944473  0.28899320    -0.75000
O158        O  0.11657738  0.45049651  0.31230162    -0.74800
C159        C  0.12948293  0.44419191  0.40038142     0.77000
C160        C  0.13040400  0.32613137  0.39714715     0.77500
C161        C  0.07401687  0.38422360  0.34291048     0.76400
C162        C  0.13054772  0.33330656  0.28472353     0.76800
C163        C  0.18564243  0.38525371  0.34318842     0.77900
C164        C  0.12909539  0.45057924  0.29196645     0.77000
C165        C  0.08728927  0.13613636  0.06754983     0.86300
C166        C  0.09385240  0.10925310  0.04953288    -0.53900
C167        C  0.11353068  0.10929790  0.04192512     0.09300
C168        C  0.12522519  0.13661096  0.05254269     0.20200
C169        C  0.10208683  0.13640740  0.09248347    -0.54600
C170        C  0.12204660  0.13627666  0.08485403     0.09400
C171        C  0.09360381  0.16361014  0.04956909    -0.54200
C172        C  0.11338023  0.16418186  0.04218106     0.09900
H173        H  0.08364189  0.09172904  0.04289165     0.14400
H174        H  0.14100957  0.13677237  0.04526598     0.00200
H175        H  0.09689473  0.13612666  0.11411618     0.14700
H176        H  0.08376204  0.18108654  0.04196928     0.14500
C177        C  0.17383729  0.13341996  0.12224212     0.86300
C178        C  0.16609729  0.11051867  0.14416459    -0.53900
C179        C  0.14674165  0.11468301  0.15226840     0.09300
C180        C  0.13627926  0.14119057  0.13758844     0.20200
C181        C  0.15870522  0.13124695  0.09795438    -0.54600
C182        C  0.13897983  0.13570700  0.10562076     0.09400
C183        C  0.16936209  0.16400334  0.13615164    -0.54200
C184        C  0.14975187  0.16821152  0.14388223     0.09900
H185        H  0.17472973  0.09306843  0.15417708     0.14400
H186        H  0.12064849  0.14459046  0.14489990     0.00200
H187        H  0.16358530  0.12654633  0.07664945     0.14700
H188        H  0.18092110  0.18035446  0.14067984     0.14500
C189        C  0.11573677  0.27457970  0.23079225    -0.11500
C190        C  0.13462625  0.26608791  0.22021954     0.15000
C191        C  0.15188429  0.28115121  0.22982948     0.01900
C192        C  0.14991057  0.30401131  0.24978017    -0.15900
C193        C  0.13114529  0.31160698  0.26127822    -0.10700
C194        C  0.11380097  0.29706674  0.25120595     0.08600
C195        C  0.13599511  0.24138587  0.19938944     0.09700
S196        S  0.17694439  0.27135824  0.21853847    -0.25000
H197        H  0.16330201  0.31495255  0.25742820     0.19900
S198        S  0.08880275  0.30660048  0.26296297    -0.30700
H199        H  0.10241010  0.26350102  0.22312253     0.10200
C200        C  0.13088091  0.21164073  0.20671644     0.03400
C201        C  0.13406049  0.18853809  0.18718857    -0.13000
C202        C  0.14298189  0.19428704  0.16090929    -0.08700
C203        C  0.14696601  0.22429544  0.15297545     0.06900
C204        C  0.14344763  0.24748262  0.17227567    -0.13800
S205        S  0.12183148  0.20259438  0.24165928    -0.30700
H206        H  0.13060752  0.16562013  0.19303921     0.11100
S207        S  0.15630025  0.23447152  0.11855858    -0.27800
H208        H  0.14693885  0.27041063  0.16636001     0.08400
H209        H  0.09261710  0.33738642  0.26671827     0.26800
H210        H  0.12075496  0.17128615  0.23798753     0.21600
H211        H  0.14816865  0.20971009  0.10435611     0.26900
H212        H  0.17340724  0.24036061  0.21600629     0.15700
C213        C  0.11137423  0.01385639  0.24462607    -0.11500
C214        C  0.12870517  0.01942383  0.22870929     0.15000
C215        C  0.14873528  0.50862510  0.24058209     0.01900
C216        C  0.14754542  0.48472667  0.25970204    -0.15900
C217        C  0.12913373  0.47592031  0.27153117    -0.10700
C218        C  0.11148760  0.49170100  0.26366098     0.08600
C219        C  0.12972797  0.04676673  0.21083999     0.09700
S220        S  0.17310840  0.51712592  0.22597987    -0.25000
H221        H  0.16119299  0.47288480  0.26538496     0.19900
S222        S  0.08677022  0.48082430  0.27514848    -0.30700
H223        H  0.09829212  0.02809825  0.24180108     0.10200
C224        C  0.11991120  0.04907714  0.18465210     0.03400
C225        C  0.12402199  0.07369145  0.16687465    -0.13000
C226        C  0.13801294  0.09556433  0.17468114    -0.08700
C227        C  0.14676250  0.09408763  0.20181207     0.06900
C228        C  0.14234279  0.06992932  0.21952417    -0.13800
S229        S  0.10369564  0.01939413  0.17281116    -0.30700
H230        H  0.11760936  0.07464830  0.14597106     0.11100
S231        S  0.16493415  0.12062582  0.21477967    -0.27800
H232        H  0.14970112  0.06828099  0.23978822     0.08400
H233        H  0.09041869  0.44978498  0.27244389     0.26800
H234        H  0.09894823  0.03226855  0.14655677     0.21600
H235        H  0.16294316  0.14261456  0.19393243     0.26900
H236        H  0.15889718  0.01613925  0.18731584     0.15700
C237        C  0.14319920  0.27626344  0.46076861    -0.11500
C238        C  0.12787895  0.25496311  0.45954771     0.15000
C239        C  0.11346522  0.25709263  0.43792926     0.01900
C240        C  0.11495069  0.28007462  0.41782220    -0.15900
C241        C  0.13017302  0.30187382  0.41902414    -0.10700
C242        C  0.14448101  0.29965951  0.44106184     0.08600
C243        C  0.12697541  0.23147820  0.48169049     0.09700
S244        S  0.09264657  0.23153477  0.43489859    -0.25000
H245        H  0.10373450  0.28122575  0.40141156     0.19900
S246        S  0.16505488  0.32525756  0.44519298    -0.30700
H247        H  0.15422674  0.27473775  0.47743216     0.10200
C248        C  0.13176104  0.20117982  0.47607254     0.03400
C249        C  0.13251139  0.18112738  0.99972441    -0.13000
C250        C  0.12172331  0.18869076  0.02419472    -0.08700
C251        C  0.11682234  0.21927078  0.02902294     0.06900
C252        C  0.12044175  0.24062097  0.00794848    -0.13800
S253        S  0.14106735  0.19012144  0.44185100    -0.30700
H254        H  0.13691475  0.15802819  0.99632875     0.11100
S255        S  0.10609189  0.23256928  0.06168046    -0.27800
H256        H  0.11769412  0.26317161  0.51343460     0.08400
H257        H  0.15228389  0.34957481  0.45174209     0.26800
H258        H  0.14412294  0.15956247  0.44832634     0.21600
H259        H  0.11424801  0.20957401  0.07858369     0.26900
H260        H  0.09095401  0.22433635  0.46363886     0.15700
C261        C  0.11120134  0.99517127  0.46001211    -0.11500
C262        C  0.12894128  0.01020104  0.46682256     0.15000
C263        C  0.14936025  0.50055416  0.45281849     0.01900
C264        C  0.14817415  0.47669260  0.43371103    -0.15900
C265        C  0.12968028  0.46782332  0.42232343    -0.10700
C266        C  0.11191313  0.48241979  0.43143442     0.08600
C267        C  0.12751508  0.03633916  0.48585337     0.09700
S268        S  0.17398912  0.50962163  0.96777055    -0.25000
H269        H  0.16188850  0.46561975  0.42698329     0.19900
S270        S  0.08746818  0.47029363  0.41990212    -0.30700
H271        H  0.09724167  0.00175004  0.47009668     0.10200
C272        C  0.12412218  0.06544953  0.47509271     0.03400
C273        C  0.12327644  0.09204149  0.99454529    -0.13000
C274        C  0.12189549  0.08578334  0.02339028    -0.08700
C275        C  0.12511855  0.05611833  0.03309427     0.06900
C276        C  0.12829829  0.03302542  0.01355840    -0.13800
S277        S  0.12323646  0.07195662  0.43755154    -0.30700
H278        H  0.12021284  0.11459506  0.98712262     0.11100
S279        S  0.12421792  0.04626446  0.06995048    -0.27800
H280        H  0.12979479  0.01003892  0.02090409     0.08400
H281        H  0.07602197  0.49105366  0.43553482     0.26800
H282        H  0.12082397  0.10335817  0.43885393     0.21600
H283        H  0.13113922  0.07405209  0.07977335     0.26900
H284        H  0.16697964  0.03332517  0.98145084     0.15700
C285        C  0.28456780  0.40180046  0.34107677    -0.11500
C286        C  0.27228879  0.37687678  0.34600470     0.15000
C287        C  0.28120826  0.34900654  0.35251921     0.01900
C288        C  0.30196242  0.34705201  0.35595985    -0.15900
C289        C  0.31429271  0.37273603  0.35464853    -0.10700
C290        C  0.30546741  0.39997134  0.34471370     0.08600
C291        C  0.25021806  0.38048413  0.34464092     0.09700
S292        S  0.26683967  0.31518651  0.35776879    -0.25000
H293        H  0.30805349  0.32506879  0.36018670     0.19900
S294        S  0.32048029  0.43277240  0.33690697    -0.30700
H295        H  0.27763353  0.42285636  0.33491787     0.10200
C296        C  0.23945192  0.39393375  0.36692424     0.03400
C297        C  0.21844398  0.39524625  0.36584901    -0.13000
C298        C  0.20785933  0.38288573  0.34315308    -0.08700
C299        C  0.21877883  0.36860219  0.32123060     0.06900
C300        C  0.23977374  0.36813549  0.32195129    -0.13800
S301        S  0.25244552  0.40843538  0.39725295    -0.30700
H302        H  0.21021848  0.40601543  0.38277796     0.11100
S303        S  0.20694344  0.34863120  0.29287005    -0.27800
H304        H  0.24804676  0.35700469  0.30524194     0.08400
H305        H  0.30471847  0.45168874  0.32814413     0.26800
H306        H  0.23528305  0.41422744  0.41374209     0.21600
H307        H  0.19191524  0.33586260  0.30994598     0.26900
H308        H  0.25057020  0.32916697  0.37147934     0.15700
C309        C  0.22659238  0.14945793  0.09074397    -0.11500
C310        C  0.23823819  0.12646272  0.10275921     0.15000
C311        C  0.22867755  0.10394857  0.11860513     0.01900
C312        C  0.20797619  0.10556242  0.12321568    -0.15900
C313        C  0.19610555  0.12983327  0.11316076    -0.10700
C314        C  0.20570391  0.15121427  0.09537065     0.08600
C315        C  0.26039601  0.12735981  0.09990731     0.09700
S316        S  0.24196345  0.07306280  0.13509467    -0.25000
H317        H  0.20174337  0.08725039  0.13475314     0.19900
S318        S  0.19171757  0.18120169  0.07858218    -0.30700
H319        H  0.23402875  0.16643978  0.07819977     0.10200
C320        C  0.27056533  0.11230449  0.07798836     0.03400
C321        C  0.29165933  0.11233792  0.07723438    -0.13000
C322        C  0.30287033  0.12716228  0.09801087    -0.08700
C323        C  0.29246161  0.14304487  0.11944644     0.06900
C324        C  0.27146112  0.14260419  0.12033139    -0.13800
S325        S  0.25662325  0.09197052  0.05176834    -0.30700
H326        H  0.29946130  0.10021574  0.06072873     0.11100
S327        S  0.30493088  0.16536654  0.14562952    -0.27800
H328        H  0.26362786  0.15441237  0.13704904     0.08400
H329        H  0.20744284  0.19225017  0.06171469     0.26800
H330        H  0.27330833  0.07989747  0.03742978     0.21600
H331        H  0.31935677  0.17699873  0.12687599     0.26900
H332        H  0.25868492  0.07228399  0.11711745     0.15700
C333        C  0.36268669  0.22969485  0.97509391    -0.11500
C334        C  0.37793395  0.24223142  0.46457459     0.15000
C335        C  0.39600811  0.23456844  0.47829225     0.01900
C336        C  0.39809598  0.21290160  0.00207695    -0.15900
C337        C  0.37971734  0.20135133  0.01177310    -0.10700
C338        C  0.36182800  0.21002270  0.99804833     0.08600
C339        C  0.37666590  0.26740598  0.44414231     0.09700
S340        S  0.41985605  0.25053474  0.46845912    -0.25000
H341        H  0.41193109  0.20615552  0.01224959     0.19900
S342        S  0.33730321  0.19874150  0.01009171    -0.30700
H343        H  0.34882512  0.23703243  0.96532961     0.10200
C344        C  0.36992872  0.26333755  0.41636275     0.03400
C345        C  0.36639247  0.28859366  0.39929667    -0.13000
C346        C  0.36934396  0.31792565  0.40944360    -0.08700
C347        C  0.37728170  0.32172777  0.43678806     0.06900
C348        C  0.38068089  0.29643813  0.45378518    -0.13800
S349        S  0.36562933  0.22607115  0.40277880    -0.30700
H350        H  0.36068161  0.28560120  0.37818586     0.11100
S351        S  0.38175664  0.35833950  0.45154538    -0.27800
H352        H  0.38571096  0.29925416  0.47526264     0.08400
H353        H  0.34187784  0.20064944  0.03892731     0.26800
H354        H  0.35829853  0.23504978  0.37630496     0.21600
H355        H  0.39060015  0.34872681  0.47687841     0.26900
H356        H  0.41499582  0.25607861  0.44012253     0.15700
C357        C  0.38763715  0.48644180  0.99759035    -0.11500
C358        C  0.37862963  0.99079595  0.47333129     0.15000
C359        C  0.37401547  0.02089552  0.46610472     0.01900
C360        C  0.37035548  0.04456226  0.99259007    -0.15900
C361        C  0.38070142  0.03908908  0.01791854    -0.10700
C362        C  0.39040878  0.01079833  0.02138649     0.08600
C363        C  0.37281015  0.46510304  0.45912722     0.09700
S364        S  0.36622956  0.03209766  0.43124441    -0.25000
H365        H  0.36288754  0.06595388  0.98924037     0.19900
S366        S  0.40281835  0.99950223  0.05337693    -0.30700
H367        H  0.39453896  0.46457726  0.00072945     0.10200
C368        C  0.38638293  0.45871800  0.43704207     0.03400
C369        C  0.38189235  0.43585991  0.41765394    -0.13000
C370        C  0.36429116  0.41889348  0.42038259    -0.08700
C371        C  0.35168782  0.42374879  0.44414371     0.06900
C372        C  0.35584033  0.44716518  0.46270253    -0.13800
S373        S  0.40894702  0.48047229  0.43294254    -0.30700
H374        H  0.39172958  0.43188786  0.39982403     0.11100
S375        S  0.33052590  0.40027885  0.45290737    -0.27800
H376        H  0.34580061  0.45135644  0.48029456     0.08400
H377        H  0.38694157  0.00893648  0.07094224     0.26800
H378        H  0.41784129  0.46206431  0.41227680     0.21600
H379        H  0.33837789  0.37379463  0.44105247     0.26900
H380        H  0.35614662  0.00541988  0.42460731     0.15700
C381        C  0.40191892  0.50023177  0.19269491    -0.11500
C382        C  0.38412300  0.49338478  0.20714834     0.15000
C383        C  0.36656252  0.00804505  0.20339809     0.01900
C384        C  0.36703239  0.03234860  0.18451104    -0.15900
C385        C  0.38484740  0.04075531  0.17063155    -0.10700
C386        C  0.40274771  0.02481856  0.17692841     0.08600
C387        C  0.38458513  0.46897437  0.22845345     0.09700
S388        S  0.34274356  0.99863229  0.21918972    -0.25000
H389        H  0.35318272  0.04423912  0.18000019     0.19900
S390        S  0.42693803  0.03511370  0.16290144    -0.30700
H391        H  0.41537826  0.48724547  0.19695682     0.10200
C392        C  0.38706623  0.43860050  0.22064898     0.03400
C393        C  0.38979591  0.41664515  0.24163319    -0.13000
C394        C  0.39011028  0.42459647  0.27016783    -0.08700
C395        C  0.38638858  0.45469882  0.27795630     0.06900
C396        C  0.38380681  0.47658787  0.25706851    -0.13800
S397        S  0.38727878  0.42798506  0.18397052    -0.30700
H398        H  0.39284757  0.39354729  0.23581545     0.11100
S399        S  0.38574834  0.46659905  0.31421729    -0.27800
H400        H  0.38175732  0.49986795  0.26312476     0.08400
H401        H  0.42352078  0.06627572  0.16488554     0.26800
H402        H  0.39048151  0.39704261  0.18833137     0.21600
H403        H  0.37860855  0.43920696  0.32503262     0.26900
H404        H  0.34588525  0.47292933  0.22273356     0.15700
C405        C  0.38050485  0.26184609  0.18398385    -0.11500
C406        C  0.38498941  0.25409645  0.21196192     0.15000
C407        C  0.38614743  0.22331454  0.21938701     0.01900
C408        C  0.38338407  0.20124943  0.19868278    -0.15900
C409        C  0.38005900  0.20906545  0.17036916    -0.10700
C410        C  0.37802205  0.23983180  0.16324430     0.08600
C411        C  0.38914311  0.27861023  0.23245731     0.09700
S412        S  0.39205780  0.21068393  0.25453450    -0.25000
H413        H  0.38488635  0.17776976  0.20448007     0.19900
S414        S  0.37187976  0.25249343  0.12820075    -0.30700
H415        H  0.37916716  0.28534870  0.17818813     0.10200
C416        C  0.40613624  0.29708616  0.22926294     0.03400
C417        C  0.40982030  0.31977290  0.24897355    -0.13000
C418        C  0.39718963  0.32423204  0.27238206    -0.08700
C419        C  0.38032053  0.30541331  0.27582781     0.06900
C420        C  0.37629067  0.28323250  0.25562780    -0.13800
S421        S  0.42370324  0.29104915  0.20069748    -0.30700
H422        H  0.42272637  0.33414643  0.24620752     0.11100
S423        S  0.36410142  0.30729845  0.30624041    -0.27800
H424        H  0.36333233  0.26892339  0.25836646     0.08400
H425        H  0.35974144  0.22775378  0.12161864     0.26800
H426        H  0.43679516  0.31465596  0.20727548     0.21600
H427        H  0.37947074  0.31387133  0.32539969     0.26900
H428        H  0.40504133  0.23442868  0.26102859     0.15700
C429        C  0.97460840  0.38990772  0.32770942    -0.11500
C430        C  0.98771194  0.37037097  0.34181258     0.15000
C431        C  0.97971469  0.34757372  0.35900296     0.01900
C432        C  0.95893627  0.34492517  0.36205388    -0.15900
C433        C  0.94541862  0.36553053  0.34934776    -0.10700
C434        C  0.95367743  0.38777919  0.33112124     0.08600
C435        C  0.00964972  0.37515833  0.33956781     0.09700
S436        S  0.99518301  0.32174187  0.37891756    -0.25000
H437        H  0.95404262  0.32733112  0.37566833     0.19900
S438        S  0.93796987  0.41474041  0.31289718    -0.30700
H439        H  0.98089920  0.40740624  0.31455536     0.10200
C440        C  0.02231159  0.35474485  0.32535522     0.03400
C441        C  0.04318874  0.35839269  0.32671478    -0.13000
C442        C  0.05177545  0.38209729  0.34201251    -0.08700
C443        C  0.03889488  0.40276803  0.35587460     0.06900
C444        C  0.01807440  0.39931442  0.35412628    -0.13800
S445        S  0.01185999  0.32413170  0.30541438    -0.30700
H446        H  0.05288745  0.34271821  0.31571151     0.11100
S447        S  0.04789575  0.43269525  0.37781190    -0.27800
H448        H  0.00833824  0.41477563  0.36538690     0.08400
H449        H  0.95289041  0.42634805  0.29494190     0.26800
H450        H  0.03021047  0.31061523  0.29779561     0.21600
H451        H  0.06282378  0.41502431  0.39075840     0.26900
H452        H  0.01067225  0.34208190  0.38464314     0.15700
C453        C  0.89553960  0.99975495  0.18795368    -0.11500
C454        C  0.87731255  0.98534279  0.19343258     0.15000
C455        C  0.86000426  0.99396106  0.17838537     0.01900
C456        C  0.86118854  0.01726337  0.15866063    -0.15900
C457        C  0.87933400  0.03219538  0.15339615    -0.10700
C458        C  0.89680598  0.02299761  0.16797843     0.08600
C459        C  0.87290364  0.46369659  0.21694055     0.09700
S460        S  0.83588536  0.97656745  0.18376198    -0.25000
H461        H  0.84773404  0.02402413  0.14753802     0.19900
S462        S  0.92092542  0.03971158  0.16058062    -0.30700
H463        H  0.90535806  0.49502300  0.20274421     0.10200
C464        C  0.87940547  0.43383592  0.21301769     0.03400
C465        C  0.87685013  0.41283723  0.23483470    -0.13000
C466        C  0.86756611  0.42096287  0.26030430    -0.08700
C467        C  0.86262029  0.45153456  0.26492518     0.06900
C468        C  0.86501411  0.47243567  0.24307178    -0.13800
S469        S  0.88990373  0.42214725  0.17965095    -0.30700
H470        H  0.88131953  0.38977743  0.23155448     0.11100
S471        S  0.85387347  0.46542758  0.29844998    -0.27800
H472        H  0.86069291  0.49566505  0.24642011     0.08400
H473        H  0.93220464  0.02204132  0.17941771     0.26800
H474        H  0.89266004  0.39167945  0.18673772     0.21600
H475        H  0.86338156  0.44304139  0.31466882     0.26900
H476        H  0.84315317  0.94812863  0.19180784     0.15700
C477        C  0.86101546  0.24126478  0.18196072    -0.11500
C478        C  0.87889034  0.25018188  0.19483578     0.15000
C479        C  0.89669423  0.23383461  0.18932217     0.01900
C480        C  0.89624949  0.20925577  0.17087669    -0.15900
C481        C  0.87842522  0.20081740  0.15738257    -0.10700
C482        C  0.86051113  0.21673147  0.16367018     0.08600
C483        C  0.87787043  0.27528796  0.21531667     0.09700
S484        S  0.92047569  0.24368240  0.20455805    -0.25000
H485        H  0.91007621  0.19728803  0.16629067     0.19900
S486        S  0.83629672  0.20607682  0.15026136    -0.30700
H487        H  0.84719236  0.25316866  0.18675224     0.10200
C488        C  0.87282138  0.30474190  0.20671764     0.03400
C489        C  0.86862880  0.32666884  0.22712244    -0.13000
C490        C  0.87012470  0.32008100  0.25594532    -0.08700
C491        C  0.87633947  0.29109176  0.26445312     0.06900
C492        C  0.87992695  0.26893489  0.24412591    -0.13800
S493        S  0.87128453  0.31423564  0.16976675    -0.30700
H494        H  0.86315531  0.34850408  0.22061720     0.11100
S495        S  0.87866058  0.28063121  0.30097615    -0.27800
H496        H  0.88374809  0.24632183  0.25083290     0.08400
H497        H  0.84001049  0.17494440  0.15165057     0.26800
H498        H  0.86748209  0.34511970  0.17338301     0.21600
H499        H  0.88591320  0.30862504  0.30969595     0.26900
H500        H  0.91650021  0.27465435  0.20670632     0.15700
C501        C  0.86644663  0.00278672  0.46571507    -0.11500
C502        C  0.88531453  0.99149521  0.45776116     0.15000
C503        C  0.90268151  0.00304914  0.47066044     0.01900
C504        C  0.90042193  0.02905388  0.98985272    -0.15900
C505        C  0.88194867  0.03674702  0.49922652    -0.10700
C506        C  0.86457328  0.02527602  0.48616874     0.07000
C507        C  0.88277859  0.46890161  0.43804939     0.09700
S508        S  0.92443671  0.49371519  0.46009597    -0.25000
H509        H  0.91392222  0.03920173  0.99803515     0.19900
S510        S  0.83970771  0.03932066  0.49356772    -0.30700
H511        H  0.85310763  0.99435407  0.45554217     0.10200
C512        C  0.87648895  0.43918110  0.44333560     0.03400
C513        C  0.88030279  0.41691219  0.42313431    -0.13000
C514        C  0.89042475  0.42368392  0.39792962    -0.08700
C515        C  0.89497325  0.45394612  0.39163831     0.06900
C516        C  0.89121987  0.47612955  0.41178577    -0.13800
S517        S  0.86512895  0.42895865  0.47660449    -0.30700
H518        H  0.87649391  0.39381528  0.42776891     0.11100
S519        S  0.90551817  0.46573222  0.35838060    -0.27800
H520        H  0.89542416  0.49914885  0.40728926     0.08400
H521        H  0.84556547  0.06940738  0.49696876     0.26800
H522        H  0.86110168  0.39884178  0.46983514     0.21600
H523        H  0.89720545  0.44228178  0.34251486     0.26900
H524        H  0.91957166  0.46326300  0.45648715     0.15700
C525        C  0.89109085  0.30064480  0.45410826    -0.11500
C526        C  0.88007179  0.27583920  0.44485508     0.15000
C527        C  0.87123257  0.27662835  0.41783683     0.01900
C528        C  0.87494733  0.30110975  0.39992645    -0.15900
C529        C  0.88768644  0.32432988  0.40827106    -0.10700
C530        C  0.89519593  0.32471871  0.43597998     0.08600
C531        C  0.87964989  0.24873869  0.46306308     0.09700
S532        S  0.85629258  0.24633850  0.40427472    -0.25000
H533        H  0.86920290  0.30086193  0.37860650     0.19900
S534        S  0.91104580  0.35499902  0.44769268    -0.30700
H535        H  0.89744478  0.30021271  0.47505165     0.10200
C536        C  0.89724327  0.23167925  0.46772722     0.03400
C537        C  0.89674843  0.20718545  0.48637571    -0.13000
C538        C  0.87893605  0.19902161  0.50023179    -0.08700
C539        C  0.86102803  0.21503553  0.49395623     0.06900
C540        C  0.86168767  0.24004847  0.47601170    -0.13800
S541        S  0.92037741  0.24107148  0.44983489    -0.30700
H542        H  0.90848136  0.19155736  0.98865080     0.11100
S543        S  0.83673053  0.20410516  0.50717401    -0.27800
H544        H  0.84806548  0.25268161  0.47187480     0.08400
H545        H  0.91416174  0.34416108  0.47519484     0.26800
H546        H  0.93038616  0.21150859  0.95766720     0.21600
H547        H  0.84055704  0.17303339  0.50535808     0.26900
H548        H  0.86698110  0.22298754  0.41752966     0.15700
C549        C  0.99017588  0.12650253  0.10766474    -0.11500
C550        C  0.00084014  0.11902213  0.08318474     0.15000
C551        C  0.99018458  0.10977347  0.05913984     0.01900
C552        C  0.96917202  0.10964803  0.05962649    -0.15900
C553        C  0.95825113  0.11803999  0.08383439    -0.10700
C554        C  0.96908434  0.12607197  0.10840872     0.08600
C555        C  0.02273549  0.12495880  0.08207971     0.09700
S556        S  0.00254390  0.09902315  0.02679220    -0.25000
H557        H  0.96130019  0.10293409  0.04077887     0.19900
S558        S  0.95663279  0.13815610  0.14037520    -0.30700
H559        H  0.99844691  0.13406133  0.12586568     0.10200
C560        C  0.03000791  0.15131339  0.06947969     0.03400
C561        C  0.05073007  0.15574722  0.06700586    -0.13000
C562        C  0.06482319  0.13376362  0.07583706    -0.08700
C563        C  0.05723670  0.10815348  0.09045341     0.06900
C564        C  0.03636135  0.10414854  0.09336411    -0.13800
S565        S  0.01275106  0.17942922  0.05615259    -0.30700
H566        H  0.05536696  0.17651693  0.05775801     0.11100
S567        S  0.07384156  0.07974407  0.10486859    -0.27800
H568        H  0.03054927  0.08426459  0.10365021     0.08400
H569        H  0.97343236  0.13590486  0.15809917     0.26800
H570        H  0.02706923  0.19785638  0.04292872     0.21600
H571        H  0.05904712  0.06198728  0.11785432     0.26900
H572        H  0.02035248  0.08853986  0.03922428     0.15700
C573        C  0.72417735  0.10656290  0.09475259    -0.11500
C574        C  0.73773537  0.12825645  0.08516323     0.15000
C575        C  0.73034810  0.15426603  0.07170248     0.01900
C576        C  0.70979148  0.15764380  0.06742288    -0.15900
C577        C  0.69598454  0.13492182  0.07468150    -0.10700
C578        C  0.70343819  0.10969119  0.09008217     0.08600
C579        C  0.75958033  0.12273813  0.08781854     0.09700
S580        S  0.74679608  0.17121891  0.53275542    -0.25000
H581        H  0.70510733  0.17843809  0.05765992     0.19900
S582        S  0.68685432  0.08094095  0.10364026    -0.30700
H583        H  0.72998459  0.08685456  0.10549391     0.10200
C584        C  0.77160112  0.13986611  0.10598751     0.03400
C585        C  0.79257562  0.13785381  0.10376285    -0.13000
C586        C  0.80178037  0.11860128  0.08407750    -0.08700
C587        C  0.78958018  0.10040302  0.06688418     0.06900
C588        C  0.76869191  0.10246997  0.06915187    -0.13800
S589        S  0.76018565  0.16448222  0.13170504    -0.30700
H590        H  0.80187222  0.15142269  0.11730745     0.11100
S591        S  0.79959407  0.07589855  0.04010382    -0.27800
H592        H  0.75943850  0.08942906  0.05506156     0.08400
H593        H  0.70146576  0.06361379  0.11760892     0.26800
H594        H  0.77806746  0.17294272  0.14505942     0.21600
H595        H  0.81466808  0.09585061  0.03124310     0.26900
H596        H  0.76229506  0.16476008  0.04991481     0.15700
C597        C  0.52855815  0.14680647  0.12160054    -0.11500
C598        C  0.52249499  0.13770152  0.09490244     0.15000
C599        C  0.53709608  0.13084407  0.07434943     0.01900
C600        C  0.55745504  0.13324415  0.08111836    -0.15900
C601        C  0.56391743  0.14204572  0.10819725    -0.10700
C602        C  0.54883274  0.14839367  0.12879637     0.08600
C603        C  0.50076289  0.13375652  0.09044984     0.09700
S604        S  0.53100103  0.11800194  0.03935983    -0.25000
H605        H  0.56801077  0.12645826  0.06505689     0.19900
S606        S  0.55459360  0.15787747  0.16485286    -0.30700
H607        H  0.51714139  0.15193373  0.13720770     0.10200
C608        C  0.49078991  0.10867504  0.10184366     0.03400
C609        C  0.46984115  0.10727936  0.10056322    -0.13000
C610        C  0.45856606  0.13048259  0.08806874    -0.08700
C611        C  0.46880100  0.15479141  0.07513136     0.06900
C612        C  0.48973395  0.15640224  0.07692095    -0.13800
S613        S  0.50480736  0.07868891  0.11851983    -0.30700
H614        H  0.46216897  0.08842299  0.11012976     0.11100
S615        S  0.45622729  0.18393661  0.05536107    -0.27800
H616        H  0.49748800  0.17548769  0.06785295     0.08400
H617        H  0.53539662  0.15304476  0.17634134     0.26800
H618        H  0.48822113  0.06117128  0.12650979     0.21600
H619        H  0.44204565  0.16461258  0.04327154     0.26900
H620        H  0.51092570  0.11014209  0.04413992     0.15700
C621        C  0.74161128  0.40116584  0.31854682    -0.11500
C622        C  0.75123108  0.37932802  0.33508851     0.15000
C623        C  0.73988197  0.36255738  0.35472250     0.01900
C624        C  0.71904849  0.36677036  0.35618121    -0.15900
C625        C  0.70925123  0.38770808  0.33870051    -0.10700
C626        C  0.72086915  0.40579786  0.32037110     0.08600
C627        C  0.77287863  0.37366450  0.33005010     0.09700
S628        S  0.75096898  0.33480550  0.37774386    -0.25000
H629        H  0.71035402  0.35296263  0.37051714     0.19900
S630        S  0.71024077  0.43552068  0.29916337    -0.30700
H631        H  0.75033256  0.41448932  0.30383919     0.10200
C632        C  0.77948632  0.34905492  0.31395037     0.03400
C633        C  0.79989974  0.34613191  0.30719173    -0.13000
C634        C  0.81417854  0.36749247  0.31591152    -0.08700
C635        C  0.80736287  0.39132755  0.33365101     0.06900
C636        C  0.78686809  0.39424525  0.34006421    -0.13800
S637        S  0.76166615  0.32211317  0.30075796    -0.30700
H638        H  0.80420120  0.32725737  0.29441339     0.11100
S639        S  0.82435919  0.41896704  0.34786723    -0.27800
H640        H  0.78155482  0.41298886  0.35259755     0.08400
H641        H  0.69547438  0.44381914  0.31896603     0.26800
H642        H  0.77562678  0.30262117  0.28794976     0.21600
H643        H  0.81055486  0.43356404  0.36572531     0.26900
H644        H  0.77009644  0.34781509  0.37892951     0.15700
C645        C  0.64165628  0.03246821  0.50612512    -0.11500
C646        C  0.63843423  0.03976246  0.47771935     0.15000
C647        C  0.63677057  0.07028282  0.46969856     0.01900
C648        C  0.63894061  0.09273644  0.49003565    -0.15900
C649        C  0.64327621  0.08538737  0.51809707    -0.10700
C650        C  0.64403485  0.05492481  0.52636809     0.08600
C651        C  0.63699972  0.01503687  0.45702005     0.09700
S652        S  0.63295269  0.08204000  0.43372633    -0.25000
H653        H  0.63844198  0.11610845  0.48359396     0.19900
S654        S  0.64749250  0.04129885  0.06280337    -0.30700
H655        H  0.64255991  0.00908419  0.51247618     0.10200
C656        C  0.65396732  0.99780496  0.44944014     0.03400
C657        C  0.65000126  0.47504488  0.42937331    -0.13000
C658        C  0.63122953  0.46839509  0.41766563    -0.08700
C659        C  0.61411968  0.48460293  0.42704222     0.06900
C660        C  0.61633946  0.50771804  0.44677530    -0.13800
S661        S  0.67832900  0.00641052  0.46375261    -0.30700
H662        H  0.66317533  0.46291887  0.42218125     0.11100
S663        S  0.58901010  0.47602581  0.41580602    -0.27800
H664        H  0.60325145  0.52019939  0.45379670     0.08400
H665        H  0.63985544  0.06696870  0.07644901     0.26800
H666        H  0.68878443  0.98236180  0.45119483     0.21600
H667        H  0.59206877  0.44472430  0.41506995     0.26900
H668        H  0.64385790  0.05836527  0.42133886     0.15700
C669        C  0.62173304  0.22827994  0.49611024    -0.11500
C670        C  0.63220552  0.22782256  0.47033724     0.15000
C671        C  0.64584654  0.20410836  0.46490913     0.01900
C672        C  0.64996412  0.18306854  0.48598129    -0.15900
C673        C  0.64046196  0.18452723  0.51233521    -0.10700
C674        C  0.62572715  0.20685764  0.51719175     0.08600
C675        C  0.63101724  0.25418106  0.45114494     0.09700
S676        S  0.65908710  0.20011227  0.43187411    -0.25000
H677        H  0.66109835  0.16570857  0.48203251     0.19900
S678        S  0.61450840  0.21148724  0.05086946    -0.30700
H679        H  0.61123403  0.24638123  0.50042119     0.10200
C680        C  0.61354530  0.26159174  0.43598487     0.03400
C681        C  0.61402614  0.28550026  0.41653857    -0.13000
C682        C  0.63168798  0.30200139  0.41175679    -0.08700
C683        C  0.64915613  0.29427760  0.42702588     0.06900
C684        C  0.64844769  0.27112776  0.44691997    -0.13800
S685        S  0.59094871  0.23989645  0.44048489    -0.30700
H686        H  0.60062099  0.29128785  0.40490106     0.11100
S687        S  0.67325316  0.31129461  0.42070623    -0.27800
H688        H  0.66194844  0.26531079  0.45840165     0.08400
H689        H  0.62978584  0.20045690  0.06842844     0.26800
H690        H  0.57902123  0.25648705  0.42158504     0.21600
H691        H  0.67132552  0.31164643  0.39120196     0.26900
H692        H  0.64440337  0.21423954  0.41519743     0.15700
C693        C  0.61135341  0.06473453  0.21065151    -0.11500
C694        C  0.62856851  0.04725855  0.20611916     0.15000
C695        C  0.64055106  0.05303911  0.18201801     0.01900
C696        C  0.63454080  0.07529566  0.16262841    -0.15900
C697        C  0.61703409  0.09239923  0.16709455    -0.10700
C698        C  0.60587220  0.08766380  0.19215087     0.08600
C699        C  0.63237704  0.02214428  0.22620046     0.09700
S700        S  0.66046652  0.52882203  0.17054297    -0.25000
H701        H  0.64345500  0.07907184  0.14382039     0.19900
S702        S  0.58509874  0.11096744  0.20294079    -0.30700
H703        H  0.60210484  0.06061917  0.22908817     0.10200
C704        C  0.63424163  0.02735434  0.25541906     0.03400
C705        C  0.63291924  0.50446662  0.27289517    -0.13000
C706        C  0.63058159  0.47474396  0.26382294    -0.08700
C707        C  0.62888414  0.46889685  0.23467880     0.06900
C708        C  0.62899408  0.49283630  0.21542394    -0.13800
S709        S  0.63732478  0.06504636  0.26875125    -0.30700
H710        H  0.63474735  0.50880726  0.29515796     0.11100
S711        S  0.62549776  0.43158497  0.22081800    -0.27800
H712        H  0.62675193  0.48825354  0.19326711     0.08400
H713        H  0.59308762  0.13766281  0.19179710     0.26800
H714        H  0.64015864  0.05704261  0.29714523     0.21600
H715        H  0.61388304  0.42091342  0.24349648     0.26900
H716        H  0.66578226  0.52226830  0.19852695     0.15700
C717        C  0.63553509  0.21502012  0.20024893    -0.11500
C718        C  0.62983294  0.24403100  0.19196151     0.15000
C719        C  0.62106125  0.24852521  0.16534397     0.01900
C720        C  0.61694010  0.22368961  0.14843927    -0.15900
C721        C  0.62115119  0.19419745  0.15754137    -0.10700
C722        C  0.63118342  0.18996177  0.18353706     0.08600
C723        C  0.63045591  0.26809175  0.21328623     0.09700
S724        S  0.61348359  0.28509636  0.15265607    -0.25000
H725        H  0.60962562  0.22737191  0.12837332     0.19900
S726        S  0.63699989  0.15308140  0.19727880    -0.30700
H727        H  0.64233356  0.21194974  0.22073270     0.10200
C728        C  0.61325631  0.27520124  0.22928488     0.03400
C729        C  0.61450177  0.29671939  0.25061994    -0.13000
C730        C  0.63268868  0.31106783  0.25671215    -0.08700
C731        C  0.65001157  0.30354192  0.24074707     0.06900
C732        C  0.64864234  0.28234497  0.21908701    -0.13800
S733        S  0.58980129  0.25621915  0.22304363    -0.30700
H734        H  0.60118612  0.30241976  0.26264510     0.11100
S735        S  0.67448558  0.31862049  0.24792171    -0.27800
H736        H  0.66194295  0.27631762  0.20713293     0.08400
H737        H  0.64282966  0.16196053  0.22441800     0.26800
H738        H  0.57915820  0.26880300  0.24581618     0.21600
H739        H  0.67248145  0.31668919  0.27738866     0.26900
H740        H  0.62729943  0.30168020  0.16846942     0.15700
C741        C  0.52153219  0.36289539  0.32400029    -0.11500
C742        C  0.51094366  0.38122190  0.34295417     0.15000
C743        C  0.52172444  0.40025218  0.36114282     0.01900
C744        C  0.54265656  0.40181793  0.35884236    -0.15900
C745        C  0.55326074  0.38408887  0.33933156    -0.10700
C746        C  0.54246687  0.36423148  0.32184183     0.08600
C747        C  0.48877091  0.38279725  0.34049992     0.09700
S748        S  0.50960426  0.42334296  0.38741504    -0.25000
H749        H  0.55077242  0.41665829  0.37274615     0.19900
S750        S  0.55430186  0.34150236  0.29504269    -0.30700
H751        H  0.51333103  0.34849708  0.30979024     0.10200
C752        C  0.47944287  0.40786686  0.32803921     0.03400
C753        C  0.45865877  0.40800792  0.32413253    -0.13000
C754        C  0.44673726  0.38264485  0.33039293    -0.08700
C755        C  0.45612911  0.35822860  0.34475571     0.06900
C756        C  0.47699622  0.35850306  0.34931164    -0.13800
S757        S  0.49414209  0.43928807  0.31550601    -0.30700
H758        H  0.45217286  0.42829896  0.31593377     0.11100
S759        S  0.44185888  0.32637078  0.35731724    -0.27800
H760        H  0.48428045  0.33958955  0.35946875     0.08400
H761        H  0.56855710  0.36320758  0.28721274     0.26800
H762        H  0.47874785  0.45389903  0.30051911     0.21600
H763        H  0.45830766  0.30778253  0.36397904     0.26900
H764        H  0.49254142  0.40525895  0.39079872     0.15700
Zn765      Zn  0.61417528  0.42226250  0.83893802     1.49700
Zn766      Zn  0.61541906  0.34994749  0.83477211     1.49400
Zn767      Zn  0.64874839  0.38930294  0.80317129     1.49100
Zn768      Zn  0.64864648  0.38463915  0.87062510     1.49500
O769        O  0.63168843  0.38658866  0.83692174    -1.84300
O770        O  0.58471321  0.41004722  0.83911152    -0.74900
O771        O  0.62027415  0.32823983  0.79799830    -0.74700
O772        O  0.64369836  0.42758443  0.78156182    -0.74300
O773        O  0.58595781  0.36018990  0.83581010    -0.74900
O774        O  0.61934616  0.45028531  0.80572166    -0.74500
O775        O  0.64337010  0.35559314  0.77614814    -0.75100
O776        O  0.67817455  0.38448142  0.86013562    -0.74500
O777        O  0.62133530  0.32132313  0.86729679    -0.75300
O778        O  0.67800975  0.38781012  0.81344484    -0.74700
O779        O  0.64338782  0.34657585  0.89274482    -0.75100
O780        O  0.64355181  0.42037805  0.89613140    -0.75000
O781        O  0.61967052  0.44621777  0.87424707    -0.74800
C782        C  0.57601046  0.38464026  0.83740713     0.77000
C783        C  0.63168039  0.33311774  0.77688393     0.77500
C784        C  0.63147498  0.44935561  0.78488365     0.76400
C785        C  0.68745015  0.38610429  0.83665345     0.76800
C786        C  0.63273189  0.32331721  0.88871335     0.77900
C787        C  0.63164666  0.44287822  0.89487047     0.77000
C788        C  0.58551382  0.14190663  0.61267582     0.86300
C789        C  0.59220582  0.17078183  0.62745158    -0.53900
C790        C  0.61130222  0.16996575  0.63766966     0.09300
C791        C  0.62257097  0.14055706  0.63072624     0.20200
C792        C  0.60133322  0.13844901  0.58904076    -0.54600
C793        C  0.62087856  0.13801513  0.59817414     0.09400
C794        C  0.59015414  0.11613041  0.63302995    -0.54200
C795        C  0.60922259  0.11543429  0.64304180     0.09900
H796        H  0.58257781  0.19038651  0.62972254     0.14400
H797        H  0.63800701  0.14000373  0.63910111     0.00200
H798        H  0.59750116  0.13859590  0.56704929     0.14700
H799        H  0.57894366  0.09979813  0.63936555     0.14500
C800        C  0.67379433  0.13964246  0.56314476     0.86300
C801        C  0.66708242  0.16598920  0.54406122    -0.53900
C802        C  0.64791147  0.16401175  0.53458625     0.09300
C803        C  0.63664360  0.13640492  0.54567208     0.20200
C804        C  0.65805212  0.14048018  0.58704304    -0.54600
C805        C  0.63848964  0.13804739  0.57826067     0.09400
C806        C  0.66908733  0.11138019  0.54611801    -0.54200
C807        C  0.64982081  0.10962156  0.53706910     0.09900
H808        H  0.67635909  0.18494346  0.53820126     0.14400
H809        H  0.62132313  0.13479337  0.53701250     0.00200
H810        H  0.66223264  0.14371613  0.60877502     0.14700
H811        H  0.68032950  0.09451251  0.54083258     0.14500
Zn812      Zn  0.86260419  0.08160711  0.57674666     1.49700
Zn813      Zn  0.89823668  0.11760349  0.54545607     1.49400
Zn814      Zn  0.86353649  0.15298722  0.57816836     1.49100
Zn815      Zn  0.89598071  0.11625714  0.61299586     1.49500
O816        O  0.88015738  0.11688028  0.57826049    -1.84300
O817        O  0.86787594  0.05761983  0.54117429    -0.74900
O818        O  0.89263167  0.15409231  0.52052932    -0.74700
O819        O  0.83426826  0.14332285  0.58027389    -0.74300
O820        O  0.89394086  0.08075824  0.52150624    -0.74900
O821        O  0.83307983  0.09355222  0.57825972    -0.74500
O822        O  0.86798307  0.17739381  0.54335439    -0.75100
O823        O  0.89044875  0.15275789  0.63743508    -0.74500
O824        O  0.92744415  0.11788318  0.55769290    -0.75300
O825        O  0.86917073  0.17909729  0.61124492    -0.74700
O826        O  0.92546219  0.11577551  0.60417284    -0.75100
O827        O  0.89029868  0.07895486  0.63564601    -0.75000
O828        O  0.86802253  0.05428625  0.61001264    -0.74800
C829        C  0.88109306  0.05965674  0.52177157     0.77000
C830        C  0.87981003  0.17541519  0.52237180     0.77500
C831        C  0.82431867  0.11904446  0.57983175     0.76400
C832        C  0.87948016  0.17592280  0.63350274     0.76800
C833        C  0.93591150  0.11678730  0.58174595     0.77900
C834        C  0.87923693  0.05616623  0.63161018     0.77000
C835        C  0.92433572  0.36504262  0.85406817     0.86300
C836        C  0.91758448  0.34010768  0.87472067    -0.53900
C837        C  0.89817617  0.34244548  0.88331207     0.09300
C838        C  0.88685825  0.36929969  0.87055856     0.20200
C839        C  0.90900230  0.36329730  0.82991063    -0.54600
C840        C  0.88929025  0.36576207  0.83828068     0.09400
C841        C  0.91912941  0.39419026  0.86985679    -0.54200
C842        C  0.89956395  0.39683992  0.87802705     0.09900
H843        H  0.92683698  0.32223687  0.88308821     0.14400
H844        H  0.87127889  0.37123444  0.87844975     0.00200
H845        H  0.91365653  0.36023966  0.80822579     0.14700
H846        H  0.93028554  0.41099109  0.87493766     0.14500
C847        C  0.83670649  0.36535314  0.80341618     0.86300
C848        C  0.84299090  0.33913011  0.78395753    -0.53900
C849        C  0.86233718  0.34040735  0.77479771     0.09300
C850        C  0.87400007  0.36765402  0.78575781     0.20200
C851        C  0.85235284  0.36398749  0.82708344    -0.54600
C852        C  0.87195126  0.36569243  0.81824054     0.09400
C853        C  0.84185899  0.39358106  0.78620209    -0.54200
C854        C  0.86128900  0.39516988  0.77722216     0.09900
H855        H  0.83358138  0.32080787  0.77732212     0.14400
H856        H  0.88955627  0.36868428  0.77756914     0.00200
H857        H  0.84787027  0.36147543  0.84889024     0.14700
H858        H  0.83075144  0.41060424  0.78088322     0.14500
Zn859      Zn  0.39673543  0.15811057  0.58813560     1.49700
Zn860      Zn  0.39772952  0.08587062  0.58995209     1.49400
Zn861      Zn  0.36466753  0.12219966  0.62555834     1.49100
Zn862      Zn  0.36242554  0.11993189  0.55756749     1.49500
O863        O  0.38035431  0.12157745  0.59034978    -1.84300
O864        O  0.42615003  0.14732188  0.58639513    -0.74900
O865        O  0.39321468  0.06023248  0.62458960    -0.74700
O866        O  0.37121761  0.15903706  0.64928618    -0.74300
O867        O  0.42690746  0.09740754  0.58860664    -0.74900
O868        O  0.39205898  0.18513171  0.62204392    -0.74500
O869        O  0.37021666  0.08500116  0.64936544    -0.75100
O870        O  0.33331095  0.12220484  0.56987157    -0.74500
O871        O  0.39245640  0.05993457  0.55603181    -0.75300
O872        O  0.33494920  0.12385743  0.61653997    -0.74700
O873        O  0.36704765  0.08227731  0.53421138    -0.75100
O874        O  0.36716796  0.15520407  0.53179354    -0.75000
O875        O  0.39060055  0.18208368  0.55299746    -0.74800
C876        C  0.43583240  0.12256370  0.58671958     0.77000
C877        C  0.38209587  0.06265157  0.64636099     0.77500
C878        C  0.38186606  0.18228312  0.64468271     0.76400
C879        C  0.32474767  0.12420254  0.59387542     0.76800
C880        C  0.37971015  0.06079815  0.53616468     0.77900
C881        C  0.37850401  0.17808729  0.53268779     0.77000
C882        C  0.42522938  0.37635547  0.81862138     0.86300
C883        C  0.41759959  0.40211206  0.79949755    -0.53900
C884        C  0.39855395  0.39861675  0.79011851     0.09300
C885        C  0.38851805  0.36959422  0.80011347     0.20200
C886        C  0.40927260  0.37425663  0.84209633    -0.54600
C887        C  0.38989540  0.37100191  0.83273607     0.09400
C888        C  0.42214689  0.34828379  0.80036603    -0.54200
C889        C  0.40306621  0.34442835  0.79081489     0.09900
H890        H  0.42627884  0.42098643  0.79206586     0.14400
H891        H  0.37335645  0.36693696  0.79115412     0.00200
H892        H  0.41331212  0.37612757  0.86406235     0.14700
H893        H  0.43433271  0.33320625  0.79453031     0.14500
C894        C  0.33639135  0.36702605  0.86552332     0.86300
C895        C  0.34022912  0.39386818  0.88481446    -0.53900
C896        C  0.35916183  0.39554318  0.89519525     0.09300
C897        C  0.37313805  0.37009534  0.88470502     0.20200
C898        C  0.35254679  0.36899780  0.84240633    -0.54600
C899        C  0.37192138  0.37050835  0.85205573     0.09400
C900        C  0.34309843  0.33958834  0.88332230    -0.54200
C901        C  0.36224569  0.34112296  0.89327278     0.09900
H902        H  0.32859209  0.40996491  0.89048501     0.14400
H903        H  0.38845575  0.37137203  0.89339132     0.00200
H904        H  0.34856266  0.36874916  0.82035277     0.14700
H905        H  0.33402547  0.32027647  0.88836536     0.14500
Zn906      Zn  0.11276217  0.42229794  0.84382093     1.49700
Zn907      Zn  0.14802644  0.38660355  0.87610206     1.49400
Zn908      Zn  0.11424501  0.35051588  0.84277569     1.49100
Zn909      Zn  0.14691422  0.38872293  0.80853250     1.49500
O910        O  0.13050525  0.38706330  0.84287562    -1.84300
O911        O  0.11839858  0.44705611  0.87832077    -0.74900
O912        O  0.14327892  0.34942970  0.90016297    -0.74700
O913        O  0.08484959  0.36053982  0.84228253    -0.74300
O914        O  0.14342910  0.42376794  0.90026472    -0.74900
O915        O  0.08341495  0.41039473  0.84337237    -0.74500
O916        O  0.12008994  0.32435650  0.87673759    -0.75100
O917        O  0.14157435  0.35288778  0.78399046    -0.74500
O918        O  0.17713780  0.38530824  0.86416826    -0.75300
O919        O  0.11924786  0.32599311  0.80793905    -0.74700
O920        O  0.17645864  0.38820575  0.81762247    -0.75100
O921        O  0.14088859  0.42580535  0.78539504    -0.75000
O922        O  0.11715888  0.44908803  0.81000316    -0.74800
C923        C  0.13084112  0.44540239  0.89856430     0.77000
C924        C  0.13197444  0.32662653  0.89757631     0.77500
C925        C  0.07479200  0.38493402  0.84239885     0.76400
C926        C  0.13029054  0.33002672  0.78636043     0.76800
C927        C  0.18623532  0.38601925  0.84049504     0.77900
C928        C  0.12857029  0.44754195  0.78849515     0.77000
C929        C  0.08684780  0.13559760  0.56765208     0.86300
C930        C  0.09296374  0.10887792  0.54911231    -0.53900
C931        C  0.11257113  0.10853873  0.54123322     0.09300
C932        C  0.12460187  0.13551331  0.55191908     0.20200
C933        C  0.10182550  0.13522493  0.59227856    -0.54600
C934        C  0.12169351  0.13505154  0.58432169     0.09400
C935        C  0.09315421  0.16317215  0.54990717    -0.54200
C936        C  0.11279927  0.16329791  0.54199840     0.09900
H937        H  0.08254574  0.09161351  0.54249187     0.14400
H938        H  0.14031719  0.13550463  0.54431231     0.00200
H939        H  0.09677464  0.13478317  0.61397662     0.14700
H940        H  0.08333983  0.18093033  0.54261653     0.14500
C941        C  0.17358743  0.13300339  0.62131488     0.86300
C942        C  0.16601269  0.10964392  0.64299234    -0.53900
C943        C  0.14670975  0.11365360  0.65151329     0.09300
C944        C  0.13605536  0.14001727  0.63696866     0.20200
C945        C  0.15841583  0.13077672  0.59709889    -0.54600
C946        C  0.13870221  0.13477584  0.60493264     0.09400
C947        C  0.16893658  0.16336770  0.63554280    -0.54200
C948        C  0.14933812  0.16712188  0.64349028     0.09900
H949        H  0.17468188  0.09188795  0.65247523     0.14400
H950        H  0.12044059  0.14316603  0.64443574     0.00200
H951        H  0.16323605  0.12633569  0.57571269     0.14700
H952        H  0.18040670  0.17979975  0.64025763     0.14500
C953        C  0.11466259  0.27096434  0.73311508    -0.11500
C954        C  0.13347530  0.26161668  0.72292251     0.15000
C955        C  0.15098107  0.27523707  0.73340989     0.01900
C956        C  0.14933334  0.29823322  0.75321860    -0.15900
C957        C  0.13060998  0.30726579  0.76385428    -0.10700
C958        C  0.11302767  0.29354369  0.75351908     0.08600
C959        C  0.13463447  0.23786842  0.70120503     0.09700
S960        S  0.17590524  0.26352234  0.72316694    -0.25000
H961        H  0.16289507  0.30835838  0.76126806     0.19900
S962        S  0.08813742  0.30435892  0.76477545    -0.30700
H963        H  0.10118399  0.26070974  0.72497746     0.10200
C964        C  0.12992374  0.20778704  0.70761954     0.03400
C965        C  0.13358235  0.18546392  0.68747690    -0.13000
C966        C  0.14244521  0.19241997  0.66138692    -0.08700
C967        C  0.14605374  0.22279814  0.65439836     0.06900
C968        C  0.14212480  0.24515571  0.67437799    -0.13800
S969        S  0.12077439  0.19741467  0.74217046    -0.30700
H970        H  0.13052963  0.16224316  0.69268833     0.11100
S971        S  0.15560403  0.23455342  0.62053167    -0.27800
H972        H  0.14544198  0.26836409  0.66929041     0.08400
H973        H  0.09250915  0.33499856  0.76832986     0.26800
H974        H  0.12128942  0.16610716  0.73814914     0.21600
H975        H  0.14868275  0.20962984  0.60539083     0.26900
H976        H  0.17130658  0.23292205  0.72000544     0.15700
C977        C  0.10974712  0.01712115  0.74755052    -0.11500
C978        C  0.12655349  0.02112311  0.73014529     0.15000
C979        C  0.14652243  0.50241425  0.73299985     0.01900
C980        C  0.14573562  0.47869666  0.75235405    -0.15900
C981        C  0.12794630  0.47176597  0.76691423    -0.10700
C982        C  0.11038587  0.48874893  0.76100049     0.08600
C983        C  0.12825829  0.04862589  0.71250341     0.09700
S984        S  0.17017383  0.50929336  0.71554630    -0.25000
H985        H  0.15928494  0.46586531  0.75640336     0.19900
S986        S  0.08619635  0.48032742  0.77605881    -0.30700
H987        H  0.09742730  0.03306101  0.74641223     0.10200
C988        C  0.11670411  0.05327924  0.68800066     0.03400
C989        C  0.12181100  0.07672330  0.66933038    -0.13000
C990        C  0.13824077  0.09535161  0.67481151    -0.08700
C991        C  0.14842369  0.09239183  0.70081560     0.06900
C992        C  0.14332479  0.06913092  0.71920004    -0.13800
S993        S  0.09666351  0.02791913  0.67930166    -0.30700
H994        H  0.11398287  0.07915744  0.64951139     0.11100
S995        S  0.16891249  0.11619867  0.71135231    -0.27800
H996        H  0.15188111  0.06603527  0.73836015     0.08400
H997        H  0.08855569  0.44895895  0.77399542     0.26800
H998        H  0.09028252  0.04314074  0.65491747     0.21600
H999        H  0.16405710  0.14085390  0.69426580     0.26900
H1000       H  0.15436815  0.01490212  0.68574098     0.15700
C1001       C  0.14844026  0.27096665  0.95492244    -0.11500
C1002       C  0.13060003  0.25515050  0.95953020     0.15000
C1003       C  0.11351993  0.26252138  0.94342283     0.01900
C1004       C  0.11445324  0.28592281  0.92371472    -0.15900
C1005       C  0.13216587  0.30230774  0.91925845    -0.10700
C1006       C  0.14942272  0.29437252  0.93507151     0.08600
C1007       C  0.12960377  0.23249433  0.98247438     0.09700
S1008       S  0.08997821  0.24312513  0.94730855    -0.25000
H1009       H  0.10109398  0.29145480  0.91180701     0.19900
S1010       S  0.17332604  0.31217542  0.92996998    -0.30700
H1011       H  0.16162413  0.26527120  0.96714407     0.10200
C1012       C  0.13645879  0.20273339  0.97875903     0.03400
C1013       C  0.12878214  0.17942265  0.49715631    -0.13000
C1014       C  0.12087328  0.18737258  0.52354030    -0.08700
C1015       C  0.11783404  0.21811423  0.52984546     0.06900
C1016       C  0.12077042  0.23975212  0.50882772    -0.13800
S1017       S  0.14889948  0.19186060  0.94649515    -0.30700
H1018       H  0.13162871  0.15605370  0.49259423     0.11100
S1019       S  0.10999468  0.23114513  0.56415851    -0.27800
H1020       H  0.11576305  0.26372254  0.01121833     0.08400
H1021       H  0.16666689  0.33949035  0.94170400     0.26800
H1022       H  0.15290332  0.16190927  0.95433277     0.21600
H1023       H  0.11705657  0.20605686  0.57928235     0.26900
H1024       H  0.09830239  0.21491157  0.95395033     0.15700
C1025       C  0.11085420  0.00761214  0.95036034    -0.11500
C1026       C  0.12881345  0.01399374  0.96427182     0.15000
C1027       C  0.14991569  0.50102688  0.95270632     0.01900
C1028       C  0.14899061  0.47731092  0.93331425    -0.15900
C1029       C  0.13083248  0.46945957  0.92027068    -0.10700
C1030       C  0.11310071  0.48516088  0.92789494     0.08600
C1031       C  0.12870548  0.03916566  0.98456176     0.09700
S1032       S  0.17382839  0.51104660  0.46534135    -0.25000
H1033       H  0.16266754  0.46537094  0.92787957     0.19900
S1034       S  0.08881541  0.47445539  0.91457413    -0.30700
H1035       H  0.09761414  0.02074505  0.95548380     0.10200
C1036       C  0.12691318  0.06909791  0.97505360     0.03400
C1037       C  0.12047911  0.08921927  0.49376414    -0.13000
C1038       C  0.12060883  0.08452780  0.52296212    -0.08700
C1039       C  0.12484165  0.05557849  0.53370304     0.06900
C1040       C  0.12800209  0.03168996  0.51506054    -0.13800
S1041       S  0.12842655  0.07788396  0.93794058    -0.30700
H1042       H  0.11635817  0.11105931  0.48559252     0.11100
S1043       S  0.12527673  0.04756322  0.57092039    -0.27800
H1044       H  0.13055392  0.00927370  0.52331628     0.08400
H1045       H  0.07714570  0.49264699  0.93252606     0.26800
H1046       H  0.12777727  0.10933950  0.94082775     0.21600
H1047       H  0.13358138  0.07525611  0.57852379     0.26900
H1048       H  0.16604480  0.02880784  0.48860686     0.15700
C1049       C  0.28604439  0.39564380  0.83512995    -0.11500
C1050       C  0.27278854  0.37327734  0.84406771     0.15000
C1051       C  0.28051135  0.34676533  0.85616074     0.01900
C1052       C  0.30107469  0.34415851  0.86119127    -0.15900
C1053       C  0.31457822  0.36759111  0.85463978    -0.10700
C1054       C  0.30678854  0.39309216  0.83995887     0.08600
C1055       C  0.25091376  0.37895841  0.84258425     0.09700
S1056       S  0.26474231  0.31594274  0.86712009    -0.25000
H1057       H  0.30592948  0.32354827  0.87088499     0.19900
S1058       S  0.32282888  0.42347052  0.82836975    -0.30700
H1059       H  0.27995245  0.41570900  0.82535947     0.10200
C1060       C  0.23988112  0.38684440  0.86682116     0.03400
C1061       C  0.21895277  0.38939280  0.86529974    -0.13000
C1062       C  0.20860032  0.38410943  0.84000632    -0.08700
C1063       C  0.21996091  0.37674422  0.81552800     0.06900
C1064       C  0.24091426  0.37477173  0.81706577    -0.13800
S1065       S  0.25250941  0.39354849  0.89979402    -0.30700
H1066       H  0.21061852  0.39533148  0.88410052     0.11100
S1067       S  0.20890573  0.36782538  0.78204709    -0.27800
H1068       H  0.24945977  0.36857550  0.79847557     0.08400
H1069       H  0.30804699  0.44055520  0.81449225     0.26800
H1070       H  0.23541834  0.40211393  0.91534105     0.21600
H1071       H  0.19568456  0.34644820  0.79355880     0.26900
H1072       H  0.24947016  0.32077800  0.84730542     0.15700
C1073       C  0.22578011  0.14999972  0.58822982    -0.11500
C1074       C  0.23785079  0.12761986  0.60040687     0.15000
C1075       C  0.22884827  0.10551722  0.61729691     0.01900
C1076       C  0.20827136  0.10678753  0.62274298    -0.15900
C1077       C  0.19586359  0.13011842  0.61207729    -0.10700
C1078       C  0.20495716  0.15140851  0.59360011     0.08600
C1079       C  0.25996718  0.12876146  0.59711868     0.09700
S1080       S  0.24298465  0.07553049  0.63372407    -0.25000
H1081       H  0.20261956  0.08897691  0.63554847     0.19900
S1082       S  0.19043435  0.18100081  0.57706019    -0.30700
H1083       H  0.23284008  0.16680398  0.57505180     0.10200
C1084       C  0.26987297  0.11563898  0.57393880     0.03400
C1085       C  0.29096180  0.11483964  0.57320528    -0.13000
C1086       C  0.30245203  0.12690818  0.59525973    -0.08700
C1087       C  0.29226924  0.14093444  0.61804907     0.06900
C1088       C  0.27127904  0.14128912  0.61885019    -0.13800
S1089       S  0.25559442  0.09861063  0.54605283    -0.30700
H1090       H  0.29851537  0.10412970  0.55565460     0.11100
S1091       S  0.30494560  0.15973457  0.64637826    -0.27800
H1092       H  0.26363125  0.15146102  0.63664896     0.08400
H1093       H  0.20598179  0.19313162  0.56053763     0.26800
H1094       H  0.27208050  0.08817102  0.53021756     0.21600
H1095       H  0.31884894  0.17420067  0.62860689     0.26900
H1096       H  0.25704373  0.07196097  0.61185562     0.15700
C1097       C  0.36002324  0.22861770  0.47331027    -0.11500
C1098       C  0.38097080  0.24157588  0.96568204     0.15000
C1099       C  0.39891161  0.23271261  0.97908655     0.01900
C1100       C  0.39572626  0.21389979  0.50058801    -0.15900
C1101       C  0.37777477  0.20038844  0.50950007    -0.10700
C1102       C  0.35968362  0.20818393  0.49574630     0.08600
C1103       C  0.38019912  0.26627792  0.94474130     0.09700
S1104       S  0.42319305  0.24590637  0.96781948    -0.25000
H1105       H  0.40970537  0.20806321  0.51086001     0.19900
S1106       S  0.33546733  0.19489837  0.50719082    -0.30700
H1107       H  0.34601408  0.23516102  0.46348726     0.10200
C1108       C  0.37295922  0.26170238  0.91730568     0.03400
C1109       C  0.36858597  0.28662675  0.90025280    -0.13000
C1110       C  0.37104565  0.31612860  0.91017730    -0.08700
C1111       C  0.37966416  0.32056670  0.93699281     0.06900
C1112       C  0.38411939  0.29554330  0.95392930    -0.13800
S1113       S  0.36886347  0.22416134  0.90427902    -0.30700
H1114       H  0.36251694  0.28320069  0.87940119     0.11100
S1115       S  0.38334852  0.35764135  0.95124874    -0.27800
H1116       H  0.38954113  0.29876141  0.97516285     0.08400
H1117       H  0.33975442  0.19685443  0.53611640     0.26800
H1118       H  0.35911015  0.23265705  0.87925485     0.21600
H1119       H  0.39362533  0.34877368  0.97573376     0.26900
H1120       H  0.41792500  0.25110574  0.93957363     0.15700
C1121       C  0.38645055  0.48536516  0.50370093    -0.11500
C1122       C  0.37877467  0.99472132  0.97507396     0.15000
C1123       C  0.36926110  0.02284717  0.97135359     0.01900
C1124       C  0.37487102  0.04329360  0.48679817    -0.15900
C1125       C  0.37960104  0.03632414  0.51492789    -0.10700
C1126       C  0.38402859  0.00608292  0.52207055     0.08600
C1127       C  0.37312259  0.46645248  0.95347051     0.09700
S1128       S  0.35471411  0.03194389  0.94050463    -0.25000
H1129       H  0.37143134  0.06631200  0.48096969     0.19900
S1130       S  0.38840362  0.99365011  0.55771361    -0.30700
H1131       H  0.39344476  0.46361811  0.50714587     0.10200
C1132       C  0.38587403  0.46049938  0.93033767     0.03400
C1133       C  0.38143353  0.43661709  0.91201857    -0.13000
C1134       C  0.36461087  0.41838611  0.91665544    -0.08700
C1135       C  0.35257054  0.42347263  0.94092300     0.06900
C1136       C  0.35676975  0.44764077  0.95863740    -0.13800
S1137       S  0.40733864  0.48399992  0.92367086    -0.30700
H1138       H  0.39070030  0.43267988  0.89359316     0.11100
S1139       S  0.33201534  0.39951596  0.95125486    -0.27800
H1140       H  0.34729533  0.45168538  0.97685901     0.08400
H1141       H  0.37318592  0.01171067  0.56956179     0.26800
H1142       H  0.41531023  0.46687010  0.90137538     0.21600
H1143       H  0.34007216  0.37290655  0.93995636     0.26900
H1144       H  0.36540387  0.01341637  0.92174802     0.15700
C1145       C  0.40143386  0.50351612  0.69975417    -0.11500
C1146       C  0.38330004  0.49164911  0.70975056     0.15000
C1147       C  0.36451727  0.00947747  0.70403457     0.01900
C1148       C  0.36523249  0.03289012  0.68419350    -0.15900
C1149       C  0.38272544  0.03881332  0.66846180    -0.10700
C1150       C  0.40010670  0.02121670  0.67379566     0.08600
C1151       C  0.38415240  0.46633979  0.73001619     0.09700
S1152       S  0.34105540  0.00308510  0.72206005    -0.25000
H1153       H  0.35177653  0.04605565  0.68045991     0.19900
S1154       S  0.42403207  0.02806748  0.65717936    -0.30700
H1155       H  0.41550121  0.49389572  0.70687922     0.10200
C1156       C  0.38863605  0.43684402  0.72110609     0.03400
C1157       C  0.39135040  0.41406979  0.74127764    -0.13000
C1158       C  0.38981206  0.42039181  0.77010238    -0.08700
C1159       C  0.38430173  0.44956407  0.77888874     0.06900
C1160       C  0.38158335  0.47226116  0.75878823    -0.13800
S1161       S  0.39166824  0.42855038  0.68412673    -0.30700
H1162       H  0.39591144  0.39174560  0.73474097     0.11100
S1163       S  0.38170767  0.45938166  0.81554068    -0.27800
H1164       H  0.37804531  0.49489490  0.76563680     0.08400
H1165       H  0.42255328  0.05956638  0.65902631     0.26800
H1166       H  0.39523490  0.39753482  0.68730999     0.21600
H1167       H  0.37500363  0.43096515  0.82431330     0.26900
H1168       H  0.34674235  0.46156689  0.71816433     0.15700
C1169       C  0.38244459  0.25919485  0.67991903    -0.11500
C1170       C  0.38763016  0.25156961  0.70770119     0.15000
C1171       C  0.38989419  0.22083140  0.71482724     0.01900
C1172       C  0.38701037  0.19870058  0.69422989    -0.15900
C1173       C  0.38259694  0.20641873  0.66621287    -0.10700
C1174       C  0.37997524  0.23711263  0.65920679     0.08600
C1175       C  0.39103992  0.27611045  0.72850044     0.09700
S1176       S  0.39733907  0.20840577  0.74945196    -0.25000
H1177       H  0.38914015  0.17527323  0.69984393     0.19900
S1178       S  0.37304858  0.24954122  0.62437583    -0.30700
H1179       H  0.38040674  0.28263501  0.67429137     0.10200
C1180       C  0.40721706  0.29617053  0.72533562     0.03400
C1181       C  0.41044082  0.31835440  0.74572531    -0.13000
C1182       C  0.39817675  0.32075940  0.76977160    -0.08700
C1183       C  0.38204633  0.30053588  0.77307236     0.06900
C1184       C  0.37845899  0.27883395  0.75224153    -0.13800
S1185       S  0.42436750  0.29287092  0.69591382    -0.30700
H1186       H  0.42270866  0.33394975  0.74300009     0.11100
S1187       S  0.36626765  0.30009658  0.80399645    -0.27800
H1188       H  0.36611911  0.26334132  0.75495528     0.08400
H1189       H  0.36114216  0.22445633  0.61813164     0.26800
H1190       H  0.43849426  0.31383087  0.70544294     0.21600
H1191       H  0.38154964  0.30769876  0.82294777     0.26900
H1192       H  0.40976790  0.23302075  0.75523096     0.15700
C1193       C  0.97559784  0.39161831  0.82528766    -0.11500
C1194       C  0.98877752  0.37093914  0.83769745     0.15000
C1195       C  0.98087858  0.34592720  0.85209096     0.01900
C1196       C  0.96012403  0.34272487  0.85471681    -0.15900
C1197       C  0.94658468  0.36484034  0.84469961    -0.10700
C1198       C  0.95468722  0.38872211  0.82822166     0.08600
C1199       C  0.01067127  0.37638898  0.83626027     0.09700
S1200       S  0.99647391  0.31774974  0.86874161    -0.25000
H1201       H  0.95511322  0.32299553  0.86567614     0.19900
S1202       S  0.93870737  0.41612622  0.81107289    -0.30700
H1203       H  0.98181566  0.41034012  0.81361228     0.10200
C1204       C  0.02356331  0.35798134  0.82018283     0.03400
C1205       C  0.04438729  0.36138609  0.82261985    -0.13000
C1206       C  0.05265291  0.38318540  0.84048172    -0.08700
C1207       C  0.03959728  0.40240348  0.85570172     0.06900
C1208       C  0.01881253  0.39893598  0.85324464    -0.13800
S1209       S  0.01346792  0.33027562  0.79650162    -0.30700
H1210       H  0.05431757  0.34705772  0.81046001     0.11100
S1211       S  0.04836993  0.43042635  0.87993851    -0.27800
H1212       H  0.00888772  0.41304330  0.86568023     0.08400
H1213       H  0.95397216  0.43488564  0.80071035     0.26800
H1214       H  0.03197250  0.31917121  0.78655224     0.21600
H1215       H  0.06402472  0.41259923  0.89083492     0.26900
H1216       H  0.01181105  0.33733269  0.87699929     0.15700
C1217       C  0.89425666  0.00139223  0.68985287    -0.11500
C1218       C  0.87601095  0.98682388  0.69487417     0.15000
C1219       C  0.85915609  0.99427842  0.67832955     0.01900
C1220       C  0.86077355  0.01660493  0.65766947    -0.15900
C1221       C  0.87894819  0.03159573  0.65275836    -0.10700
C1222       C  0.89601089  0.02330879  0.66876890     0.08600
C1223       C  0.87506845  0.46449091  0.71715030     0.09700
S1224       S  0.83506728  0.97655168  0.68282528    -0.25000
H1225       H  0.84759041  0.02260938  0.64558145     0.19900
S1226       S  0.92057185  0.03890519  0.66281505    -0.30700
H1227       H  0.90803570  0.49335600  0.69947678     0.10200
C1228       C  0.88144014  0.43467154  0.71240517     0.03400
C1229       C  0.87821186  0.41278051  0.73331863    -0.13000
C1230       C  0.86847143  0.42002544  0.75871201    -0.08700
C1231       C  0.86374047  0.45049739  0.76425021     0.06900
C1232       C  0.86673229  0.47221789  0.74328973    -0.13800
S1233       S  0.89249831  0.42413483  0.67905722    -0.30700
H1234       H  0.88250057  0.38975850  0.72934211     0.11100
S1235       S  0.85443894  0.46327431  0.79786359    -0.27800
H1236       H  0.86240123  0.49532967  0.74728786     0.08400
H1237       H  0.91885597  0.03964666  0.63329003     0.26800
H1238       H  0.89385582  0.39310266  0.68457129     0.21600
H1239       H  0.86389756  0.44052765  0.81370753     0.26900
H1240       H  0.84237786  0.94863520  0.69231032     0.15700
C1241       C  0.86092632  0.23972094  0.67993881    -0.11500
C1242       C  0.87865620  0.24827263  0.69338865     0.15000
C1243       C  0.89655751  0.23222664  0.68781469     0.01900
C1244       C  0.89630227  0.20798069  0.66902749    -0.15900
C1245       C  0.87861594  0.19982623  0.65506671    -0.10700
C1246       C  0.86065370  0.21575466  0.66102360     0.08600
C1247       C  0.87750508  0.27309287  0.71406700     0.09700
S1248       S  0.92023474  0.24213302  0.70332942    -0.25000
H1249       H  0.91017048  0.19608942  0.66452008     0.19900
S1250       S  0.83669189  0.20604808  0.64614085    -0.30700
H1251       H  0.84706973  0.25160665  0.68458918     0.10200
C1252       C  0.87321224  0.30279699  0.70548548     0.03400
C1253       C  0.86953657  0.32488329  0.72588955    -0.13000
C1254       C  0.87033587  0.31800151  0.75469019    -0.08700
C1255       C  0.87532882  0.28848130  0.76325183     0.06900
C1256       C  0.87881746  0.26634309  0.74288105    -0.13800
S1257       S  0.87184576  0.31237467  0.66853373    -0.30700
H1258       H  0.86490248  0.34715436  0.71939036     0.11100
S1259       S  0.87616607  0.27731448  0.79976470    -0.27800
H1260       H  0.88192214  0.24346623  0.74951652     0.08400
H1261       H  0.83998259  0.17479392  0.64706231     0.26800
H1262       H  0.86746043  0.34309369  0.67213011     0.21600
H1263       H  0.88262364  0.30520241  0.80993726     0.26900
H1264       H  0.91611696  0.27303646  0.70577362     0.15700
C1265       C  0.86595247  0.00167383  0.96924005    -0.11500
C1266       C  0.88480850  0.99197457  0.95960000     0.15000
C1267       C  0.90222551  0.00593013  0.97005882     0.01900
C1268       C  0.90082735  0.02570150  0.49088998    -0.15900
C1269       C  0.88158582  0.03840779  0.00001977    -0.10700
C1270       C  0.86413980  0.02481101  0.98906109     0.07000
C1271       C  0.88469245  0.46858335  0.93472115     0.09700
S1272       S  0.92604587  0.49014496  0.96040444    -0.25000
H1273       H  0.91425071  0.03419773  0.50079929     0.19900
S1274       S  0.83914014  0.03694087  0.99825608    -0.30700
H1275       H  0.85253041  0.99151554  0.96081986     0.10200
C1276       C  0.87760696  0.43924753  0.93986004     0.03400
C1277       C  0.88130858  0.41661460  0.91992311    -0.13000
C1278       C  0.89213839  0.42261966  0.89512234    -0.08700
C1279       C  0.89744173  0.45267529  0.88890571     0.06900
C1280       C  0.89390851  0.47514922  0.90885394    -0.13800
S1281       S  0.86526860  0.42998951  0.97267355    -0.30700
H1282       H  0.87676211  0.39381692  0.92446917     0.11100
S1283       S  0.90835287  0.46402336  0.85577403    -0.27800
H1284       H  0.89871138  0.49791166  0.90441595     0.08400
H1285       H  0.84395293  0.06762679  0.99988468     0.26800
H1286       H  0.86082910  0.39997260  0.96603626     0.21600
H1287       H  0.89919761  0.44132400  0.83985746     0.26900
H1288       H  0.92021609  0.46008941  0.95675996     0.15700
C1289       C  0.89022728  0.30022198  0.95164768    -0.11500
C1290       C  0.88082296  0.27410392  0.94205128     0.15000
C1291       C  0.87507358  0.27217721  0.91347560     0.01900
C1292       C  0.87955509  0.29591391  0.89501397    -0.15900
C1293       C  0.88985238  0.32133353  0.90439807    -0.10700
C1294       C  0.89509271  0.32362787  0.93304249     0.08600
C1295       C  0.87972746  0.24813838  0.96163394     0.09700
S1296       S  0.86370506  0.23914598  0.89865954    -0.25000
H1297       H  0.87597893  0.29383780  0.87285721     0.19900
S1298       S  0.90933734  0.35529168  0.94551872    -0.30700
H1299       H  0.89478123  0.30141166  0.97347749     0.10200
C1300       C  0.89635839  0.22891099  0.96535452     0.03400
C1301       C  0.89545879  0.20577497  0.98547312    -0.13000
C1302       C  0.87819038  0.20120165  0.00207522    -0.08700
C1303       C  0.86123111  0.22005040  0.99740855     0.06900
C1304       C  0.86239445  0.24363250  0.97781570    -0.13800
S1305       S  0.91892130  0.23428207  0.94475743    -0.30700
H1306       H  0.91044059  0.19489358  0.49079763     0.11100
S1307       S  0.83739430  0.21474398  0.01472779    -0.27800
H1308       H  0.84956160  0.25833270  0.97479319     0.08400
H1309       H  0.91032955  0.34629056  0.97390214     0.26800
H1310       H  0.93156327  0.21611666  0.45923930     0.21600
H1311       H  0.83766443  0.18328297  0.01172246     0.26900
H1312       H  0.85481042  0.22845243  0.92354640     0.15700
C1313       C  0.99011830  0.12244977  0.60825284    -0.11500
C1314       C  0.00078194  0.11938989  0.58298544     0.15000
C1315       C  0.99028546  0.11348600  0.55792065     0.01900
C1316       C  0.96933435  0.11257461  0.55833464    -0.15900
C1317       C  0.95831636  0.11673027  0.58341304    -0.10700
C1318       C  0.96906023  0.12112573  0.60893789     0.08600
C1319       C  0.02260361  0.12541114  0.58277707     0.09700
S1320       S  0.00276707  0.10775551  0.52453627    -0.25000
H1321       H  0.96160550  0.10861058  0.53868732     0.19900
S1322       S  0.95657982  0.12619531  0.64255061    -0.30700
H1323       H  0.99839795  0.12681476  0.62735411     0.10200
C1324       C  0.03004958  0.15246555  0.57177131     0.03400
C1325       C  0.05076492  0.15654442  0.56935743    -0.13000
C1326       C  0.06458027  0.13356356  0.57650574    -0.08700
C1327       C  0.05687171  0.10739202  0.59004254     0.06900
C1328       C  0.03601803  0.10367782  0.59290710    -0.13800
S1329       S  0.01306880  0.18193287  0.56051672    -0.30700
H1330       H  0.05567889  0.17797807  0.56161529     0.11100
S1331       S  0.07328763  0.07795266  0.60301802    -0.27800
H1332       H  0.03004293  0.08329953  0.60212394     0.08400
H1333       H  0.97371109  0.13226328  0.65869292     0.26800
H1334       H  0.02727115  0.19889369  0.54541436     0.21600
H1335       H  0.05831626  0.05898661  0.61389448     0.26900
H1336       H  0.02066715  0.09592133  0.53561086     0.15700
C1337       C  0.72490719  0.12052523  0.59841987    -0.11500
C1338       C  0.73832359  0.13530061  0.58044532     0.15000
C1339       C  0.73075823  0.15242077  0.55791166     0.01900
C1340       C  0.71010115  0.15393702  0.55346687    -0.15900
C1341       C  0.69613096  0.13964957  0.57156049    -0.10700
C1342       C  0.70410662  0.12172339  0.59392939     0.08600
C1343       C  0.76010442  0.12928727  0.58304831     0.09700
S1344       S  0.74647360  0.18365960  0.05850109    -0.25000
H1345       H  0.70533479  0.16527024  0.53452219     0.19900
S1346       S  0.68926240  0.09795613  0.61664954    -0.30700
H1347       H  0.73079370  0.10653205  0.61522869     0.10200
C1348       C  0.77249361  0.14711278  0.60003289     0.03400
C1349       C  0.79337698  0.14291982  0.59891634    -0.13000
C1350       C  0.80213447  0.12104648  0.58128573    -0.08700
C1351       C  0.78951015  0.10267031  0.56489906     0.06900
C1352       C  0.76870436  0.10683826  0.56615670    -0.13800
S1353       S  0.76172461  0.17596950  0.62216169    -0.30700
H1354       H  0.80296575  0.15691371  0.61163993     0.11100
S1355       S  0.79894891  0.07507806  0.54044390    -0.27800
H1356       H  0.75914137  0.09331596  0.55290573     0.08400
H1357       H  0.67775830  0.08551879  0.59502851     0.26800
H1358       H  0.77992862  0.18684112  0.63285093     0.21600
H1359       H  0.81458383  0.09323713  0.53017866     0.26900
H1360       H  0.76214461  0.17820842  0.55175344     0.15700
C1361       C  0.52774936  0.14387819  0.61915991    -0.11500
C1362       C  0.52180088  0.13186947  0.59344653     0.15000
C1363       C  0.53643335  0.12526936  0.57287329     0.01900
C1364       C  0.55673636  0.13039470  0.57867828    -0.15900
C1365       C  0.56308381  0.14154533  0.60502150    -0.10700
C1366       C  0.54797699  0.14810087  0.62557875     0.08600
C1367       C  0.50009675  0.12672467  0.58926359     0.09700
S1368       S  0.53031035  0.10905827  0.53923865    -0.25000
H1369       H  0.56741375  0.12368273  0.56280583     0.19900
S1370       S  0.55362287  0.16111807  0.66071652    -0.30700
H1371       H  0.51631115  0.14935129  0.63459531     0.10200
C1372       C  0.48958834  0.10555077  0.60579612     0.03400
C1373       C  0.46866104  0.10385192  0.60371422    -0.13000
C1374       C  0.45798188  0.12302747  0.58557916    -0.08700
C1375       C  0.46868054  0.14310169  0.56797467     0.06900
C1376       C  0.48955618  0.14497612  0.57025360    -0.13800
S1377       S  0.50280608  0.08091623  0.62981562    -0.30700
H1378       H  0.46050159  0.08826224  0.61697809     0.11100
S1379       S  0.45666806  0.16648854  0.54186870    -0.27800
H1380       H  0.49763665  0.16105853  0.55738746     0.08400
H1381       H  0.53451179  0.15707539  0.67275350     0.26800
H1382       H  0.48585705  0.06596974  0.64051175     0.21600
H1383       H  0.44168646  0.14561025  0.53512063     0.26900
H1384       H  0.51331222  0.09324270  0.54849236     0.15700
C1385       C  0.74182648  0.39831375  0.81506626    -0.11500
C1386       C  0.75176917  0.37819640  0.83303760     0.15000
C1387       C  0.74067026  0.36238450  0.85362658     0.01900
C1388       C  0.71979177  0.36609620  0.85495768    -0.15900
C1389       C  0.70968068  0.38541140  0.83623115    -0.10700
C1390       C  0.72102942  0.40233341  0.81658875     0.08600
C1391       C  0.77341630  0.37267087  0.82806869     0.09700
S1392       S  0.75210705  0.33617794  0.87785749    -0.25000
H1393       H  0.71131594  0.35309032  0.87018992     0.19900
S1394       S  0.71001569  0.42972957  0.79314309    -0.30700
H1395       H  0.75034691  0.41070041  0.79942269     0.10200
C1396       C  0.77995729  0.34854127  0.81137457     0.03400
C1397       C  0.80036172  0.34565301  0.80459348    -0.13000
C1398       C  0.81475934  0.36654543  0.81402413    -0.08700
C1399       C  0.80793517  0.39014655  0.83201640     0.06900
C1400       C  0.78742730  0.39299656  0.83848036    -0.13800
S1401       S  0.76203761  0.32218534  0.79741837    -0.30700
H1402       H  0.80446744  0.32737051  0.79105812     0.11100
S1403       S  0.82487638  0.41777096  0.84630337    -0.27800
H1404       H  0.78212819  0.41154627  0.85126127     0.08400
H1405       H  0.69552558  0.43990694  0.81258197     0.26800
H1406       H  0.77600375  0.30211982  0.78541575     0.21600
H1407       H  0.81137124  0.43082103  0.86560925     0.26900
H1408       H  0.77114580  0.34952458  0.87819165     0.15700
C1409       C  0.63883100  0.03206360  0.00696727    -0.11500
C1410       C  0.63444018  0.04015286  0.97908467     0.15000
C1411       C  0.63218684  0.07085538  0.97203209     0.01900
C1412       C  0.63532540  0.09273661  0.99266574    -0.15900
C1413       C  0.64114393  0.08461644  0.02001436    -0.10700
C1414       C  0.64208359  0.05392102  0.02750112     0.08600
C1415       C  0.63316171  0.01604331  0.95777831     0.09700
S1416       S  0.62643276  0.08358861  0.93687301    -0.25000
H1417       H  0.63448911  0.11628065  0.98685316     0.19900
S1418       S  0.64814619  0.04340918  0.56235567    -0.30700
H1419       H  0.64013446  0.00850946  0.01260603     0.10200
C1420       C  0.65053300  0.00066050  0.94864303     0.03400
C1421       C  0.65076303  0.47105859  0.93100236    -0.13000
C1422       C  0.63238611  0.46611373  0.91737210    -0.08700
C1423       C  0.61570008  0.48444788  0.92469041     0.06900
C1424       C  0.61797513  0.50764018  0.94432098    -0.13800
S1425       S  0.67497762  0.01123477  0.96143650    -0.30700
H1426       H  0.66363801  0.45734646  0.92546934     0.11100
S1427       S  0.59091343  0.47885155  0.91073205    -0.27800
H1428       H  0.60515948  0.52159218  0.94972952     0.08400
H1429       H  0.63973867  0.06924423  0.57478188     0.26800
H1430       H  0.68597890  0.98875603  0.94733553     0.21600
H1431       H  0.59200129  0.44727468  0.91187748     0.26900
H1432       H  0.63689129  0.06060189  0.92273367     0.15700
C1433       C  0.62438269  0.22776131  0.99646022    -0.11500
C1434       C  0.63474063  0.22602651  0.97062100     0.15000
C1435       C  0.64785338  0.20151543  0.96581566     0.01900
C1436       C  0.65142687  0.18074079  0.98734780    -0.15900
C1437       C  0.64191994  0.18326185  0.01364576    -0.10700
C1438       C  0.62782660  0.20662543  0.01802531     0.08600
C1439       C  0.63349917  0.25144142  0.95023105     0.09700
S1440       S  0.66089500  0.19591298  0.93285900    -0.25000
H1441       H  0.66207188  0.16262238  0.98374075     0.19900
S1442       S  0.61241220  0.21024065  0.55018069    -0.30700
H1443       H  0.61426186  0.24645279  0.00030942     0.10200
C1444       C  0.61598222  0.25785938  0.93477545     0.03400
C1445       C  0.61613572  0.28121460  0.91468638    -0.13000
C1446       C  0.63353885  0.29817989  0.90946999    -0.08700
C1447       C  0.65119436  0.29104881  0.92465039     0.06900
C1448       C  0.65081190  0.26840888  0.94515258    -0.13800
S1449       S  0.59366094  0.23571506  0.93998143    -0.30700
H1450       H  0.60259292  0.28642406  0.90312402     0.11100
S1451       S  0.67508955  0.30844221  0.91770521    -0.27800
H1452       H  0.66441417  0.26318952  0.95664129     0.08400
H1453       H  0.62831338  0.20070847  0.56740836     0.26800
H1454       H  0.58236759  0.24889742  0.91820096     0.21600
H1455       H  0.67276791  0.30886532  0.88825991     0.26900
H1456       H  0.64609496  0.20930055  0.91586000     0.15700
C1457       C  0.60822502  0.06439753  0.70758738    -0.11500
C1458       C  0.62589781  0.04764773  0.70436469     0.15000
C1459       C  0.63880332  0.05432546  0.68142085     0.01900
C1460       C  0.63333345  0.07684322  0.66192371    -0.15900
C1461       C  0.61546294  0.09342186  0.66521108    -0.10700
C1462       C  0.60327886  0.08766722  0.68916202     0.08600
C1463       C  0.62948393  0.02279219  0.72490148     0.09700
S1464       S  0.66292317  0.53477211  0.67526051    -0.25000
H1465       H  0.64296317  0.08121559  0.64394752     0.19900
S1466       S  0.58176191  0.11006170  0.69879725    -0.30700
H1467       H  0.59824307  0.05958969  0.72509760     0.10200
C1468       C  0.62990038  0.02830548  0.75420627     0.03400
C1469       C  0.63278493  0.50378924  0.77369426    -0.13000
C1470       C  0.63137231  0.47412556  0.76403197    -0.08700
C1471       C  0.63017516  0.46880675  0.73473253     0.06900
C1472       C  0.63018572  0.49311728  0.71589424    -0.13800
S1473       S  0.63115686  0.06626445  0.76753001    -0.30700
H1474       H  0.63407217  0.50779917  0.79609425     0.11100
S1475       S  0.62720008  0.43172689  0.72016560    -0.27800
H1476       H  0.62845385  0.48890897  0.69357069     0.08400
H1477       H  0.58974908  0.13721378  0.68872008     0.26800
H1478       H  0.62967515  0.05890195  0.79629201     0.21600
H1479       H  0.61507970  0.42072646  0.74217550     0.26900
H1480       H  0.66687786  0.52731796  0.70349295     0.15700
C1481       C  0.63135285  0.21793895  0.69727270    -0.11500
C1482       C  0.62721302  0.24680309  0.68694694     0.15000
C1483       C  0.62056287  0.25039140  0.65900348     0.01900
C1484       C  0.61676375  0.22486869  0.64277163    -0.15900
C1485       C  0.61956854  0.19571996  0.65372660    -0.10700
C1486       C  0.62761443  0.19232511  0.68107559     0.08600
C1487       C  0.62789595  0.27189514  0.70721481     0.09700
S1488       S  0.61560230  0.28668223  0.64342799    -0.25000
H1489       H  0.61088970  0.22775096  0.62168073     0.19900
S1490       S  0.63173698  0.15583748  0.69675019    -0.30700
H1491       H  0.63661455  0.21554024  0.71871304     0.10200
C1492       C  0.61053467  0.28081204  0.72207221     0.03400
C1493       C  0.61222261  0.30094892  0.74457534    -0.13000
C1494       C  0.63094059  0.31245352  0.75253187    -0.08700
C1495       C  0.64825168  0.30400975  0.73699284     0.06900
C1496       C  0.64650732  0.28393329  0.71451032    -0.13800
S1497       S  0.58632330  0.26566732  0.71300397    -0.30700
H1498       H  0.59891326  0.30769356  0.75612769     0.11100
S1499       S  0.67314895  0.31623793  0.74588307    -0.27800
H1500       H  0.65987275  0.27664869  0.70332964     0.08400
H1501       H  0.63645505  0.16568400  0.72402611     0.26800
H1502       H  0.57528214  0.28020390  0.73434081     0.21600
H1503       H  0.67033858  0.31346043  0.77516515     0.26900
H1504       H  0.62844328  0.30316620  0.66086444     0.15700
C1505       C  0.52220786  0.36399942  0.81963622    -0.11500
C1506       C  0.51147100  0.38004086  0.84020371     0.15000
C1507       C  0.52212146  0.39737775  0.85999316     0.01900
C1508       C  0.54308003  0.39914506  0.85812991    -0.15900
C1509       C  0.55382208  0.38331586  0.83739578    -0.10700
C1510       C  0.54316060  0.36561260  0.81786327     0.08600
C1511       C  0.48922855  0.38074314  0.83835308     0.09700
S1512       S  0.50986765  0.41791788  0.88795288    -0.25000
H1513       H  0.55111732  0.41249874  0.87338430     0.19900
S1514       S  0.55525577  0.34596896  0.78919360    -0.30700
H1515       H  0.51412088  0.35106482  0.80412149     0.10200
C1516       C  0.47916645  0.40616853  0.82779105     0.03400
C1517       C  0.45834625  0.40537304  0.82409215    -0.13000
C1518       C  0.44709818  0.37901487  0.82914987    -0.08700
C1519       C  0.45715138  0.35446389  0.84235090     0.06900
C1520       C  0.47808364  0.35543846  0.84625585    -0.13800
S1521       S  0.49300275  0.43930089  0.81740847    -0.30700
H1522       H  0.45125019  0.42569571  0.81703711     0.11100
S1523       S  0.44361098  0.32165347  0.85432766    -0.27800
H1524       H  0.48590760  0.33634242  0.85525250     0.08400
H1525       H  0.57023907  0.36757960  0.78457689     0.26800
H1526       H  0.47643100  0.45730571  0.81001210     0.21600
H1527       H  0.46040478  0.30433581  0.86215500     0.26900
H1528       H  0.49268834  0.39984248  0.88962033     0.15700
Zn1529     Zn  0.61479139  0.92282734  0.34021809     1.49700
Zn1530     Zn  0.61593270  0.85072110  0.33800137     1.49400
Zn1531     Zn  0.64907969  0.88896104  0.30469043     1.49100
Zn1532     Zn  0.64985090  0.88593283  0.37205705     1.49500
O1533       O  0.63237799  0.88719057  0.33882537    -1.84300
O1534       O  0.58522697  0.91089178  0.34093742    -0.74900
O1535       O  0.62072611  0.82746611  0.30217464    -0.74700
O1536       O  0.64371765  0.92649702  0.28212895    -0.74300
O1537       O  0.58651263  0.86097983  0.33899141    -0.74900
O1538       O  0.62000484  0.95027671  0.30662143    -0.74500
O1539       O  0.64380331  0.85393331  0.27925986    -0.75100
O1540       O  0.67935502  0.88587595  0.36078628    -0.74500
O1541       O  0.62188001  0.82325505  0.37117677    -0.75300
O1542       O  0.67848117  0.88837823  0.31411102    -0.74700
O1543       O  0.64474920  0.84834516  0.39526498    -0.75100
O1544       O  0.64484392  0.92226830  0.39676148    -0.75000
O1545       O  0.62046411  0.94725582  0.37499713    -0.74800
C1546       C  0.57653829  0.88542328  0.34003242     0.77000
C1547       C  0.63221011  0.83139652  0.28098847     0.77500
C1548       C  0.63184219  0.94868375  0.28548781     0.76400
C1549       C  0.68829909  0.88726126  0.33701768     0.76800
C1550       C  0.63367243  0.82534593  0.39213373     0.77900
C1551       C  0.63271128  0.94448422  0.39536026     0.77000
C1552       C  0.58710347  0.64263624  0.11323344     0.86300
C1553       C  0.59406054  0.67121853  0.12829196    -0.53900
C1554       C  0.61319907  0.66996286  0.13848078     0.09300
C1555       C  0.62415746  0.64039057  0.13107170     0.20200
C1556       C  0.60285594  0.63905465  0.08952269    -0.54600
C1557       C  0.62234988  0.63796994  0.09856199     0.09400
C1558       C  0.59151553  0.61666639  0.13354847    -0.54200
C1559       C  0.61065282  0.61549739  0.14322393     0.09900
H1560       H  0.58445092  0.69076699  0.13108830     0.14400
H1561       H  0.63960420  0.63930341  0.13924677     0.00200
H1562       H  0.59911255  0.63939393  0.06749075     0.14700
H1563       H  0.58015929  0.60071015  0.14024902     0.14500
C1564       C  0.67522062  0.63609906  0.06413146     0.86300
C1565       C  0.66954212  0.66224772  0.04411385    -0.53900
C1566       C  0.65031653  0.66162829  0.03476753     0.09300
C1567       C  0.63817642  0.63492380  0.04604978     0.20200
C1568       C  0.65941645  0.63779078  0.08766448    -0.54600
C1569       C  0.63990576  0.63681614  0.07866367     0.09400
C1570       C  0.66994917  0.60795824  0.04711984    -0.54200
C1571       C  0.65068156  0.60717225  0.03778873     0.09900
H1572       H  0.67951439  0.67943159  0.03624700     0.14400
H1573       H  0.62284317  0.63423380  0.03729047     0.00200
H1574       H  0.66377939  0.63964852  0.10949673     0.14700
H1575       H  0.68080929  0.59046897  0.04205136     0.14500
Zn1576     Zn  0.86292097  0.58129245  0.07574721     1.49700
Zn1577     Zn  0.89834074  0.61809875  0.04540277     1.49400
Zn1578     Zn  0.86298245  0.65277198  0.07825971     1.49100
Zn1579     Zn  0.89577840  0.61567846  0.11281766     1.49500
O1580       O  0.88008954  0.61691826  0.07798354    -1.84300
O1581       O  0.86774530  0.55858447  0.03964724    -0.74900
O1582       O  0.89295205  0.65537714  0.02153658    -0.74700
O1583       O  0.83370977  0.64202812  0.07958190    -0.74300
O1584       O  0.89369059  0.58209879  0.02013214    -0.74900
O1585       O  0.83359790  0.59219309  0.07774792    -0.74500
O1586       O  0.86809540  0.67843956  0.04410641    -0.75100
O1587       O  0.88922933  0.65107045  0.13790465    -0.74500
O1588       O  0.92761839  0.61804757  0.05806607    -0.75300
O1589       O  0.86765226  0.67787604  0.11258068    -0.74700
O1590       O  0.92558794  0.61677382  0.10460145    -0.75100
O1591       O  0.88996883  0.57776219  0.13476616    -0.75000
O1592       O  0.86810575  0.55321704  0.10838086    -0.74800
C1593       C  0.88069112  0.56117112  0.02000281     0.77000
C1594       C  0.88025706  0.67687571  0.02342561     0.77500
C1595       C  0.82433982  0.61719571  0.07941453     0.76400
C1596       C  0.87790775  0.67398688  0.13482273     0.76800
C1597       C  0.93609582  0.61750636  0.08215867     0.77900
C1598       C  0.87896215  0.55497586  0.13031688     0.77000
C1599       C  0.92591276  0.86729998  0.35195596     0.86300
C1600       C  0.91979787  0.84260145  0.37319686    -0.53900
C1601       C  0.90051023  0.84459961  0.38235422     0.09300
C1602       C  0.88868432  0.87086902  0.36957863     0.20200
C1603       C  0.91026701  0.86482010  0.32838633    -0.54600
C1604       C  0.89067145  0.86687899  0.33734000     0.09400
C1605       C  0.92068232  0.89655688  0.36755255    -0.54200
C1606       C  0.90122976  0.89878008  0.37638554     0.09900
H1607       H  0.92945694  0.82537241  0.38181969     0.14400
H1608       H  0.87319770  0.87245874  0.37789132     0.00200
H1609       H  0.91471029  0.86154819  0.30665960     0.14700
H1610       H  0.93178737  0.91353683  0.37231134     0.14500
C1611       C  0.83777245  0.86543594  0.30335478     0.86300
C1612       C  0.84390501  0.83850786  0.28468893    -0.53900
C1613       C  0.86321115  0.83925255  0.27540653     0.09300
C1614       C  0.87499828  0.86675064  0.28533325     0.20200
C1615       C  0.85353151  0.86487365  0.32696380    -0.54600
C1616       C  0.87310933  0.86600894  0.31780571     0.09400
C1617       C  0.84299255  0.89300006  0.28526310    -0.54200
C1618       C  0.86241678  0.89407926  0.27623735     0.09900
H1619       H  0.83442682  0.82002328  0.27862033     0.14400
H1620       H  0.89047182  0.86734977  0.27684933     0.00200
H1621       H  0.84916047  0.86347838  0.34890222     0.14700
H1622       H  0.83201276  0.91011086  0.27965955     0.14500
Zn1623     Zn  0.39814413  0.66025552  0.08822807     1.49700
Zn1624     Zn  0.39975764  0.58789022  0.08910278     1.49400
Zn1625     Zn  0.36638015  0.62383480  0.12517904     1.49100
Zn1626     Zn  0.36397133  0.62115025  0.05781382     1.49500
O1627       O  0.38211067  0.62334442  0.09014962    -1.84300
O1628       O  0.42768324  0.65004567  0.08681142    -0.74900
O1629       O  0.39586407  0.56286354  0.12421387    -0.74700
O1630       O  0.37228271  0.66076641  0.14890782    -0.74300
O1631       O  0.42880500  0.60010103  0.08687779    -0.74900
O1632       O  0.39287834  0.68758701  0.12195596    -0.74500
O1633       O  0.37249794  0.58713264  0.14884832    -0.75100
O1634       O  0.33483766  0.62466070  0.06992286    -0.74500
O1635       O  0.39409314  0.56102210  0.05559341    -0.75300
O1636       O  0.33667215  0.62451716  0.11645523    -0.74700
O1637       O  0.36771892  0.58256059  0.03572138    -0.75100
O1638       O  0.36946322  0.65523640  0.03117470    -0.75000
O1639       O  0.39214861  0.68339236  0.05262566    -0.74800
C1640       C  0.43755437  0.62546302  0.08594254     0.77000
C1641       C  0.38467801  0.56516395  0.14593659     0.77500
C1642       C  0.38260094  0.68435898  0.14449091     0.76400
C1643       C  0.32630919  0.62567169  0.09399829     0.76800
C1644       C  0.38053761  0.56121693  0.03679062     0.77900
C1645       C  0.38054017  0.67840716  0.03195057     0.77000
C1646       C  0.42614084  0.87726889  0.31950180     0.86300
C1647       C  0.41856239  0.90309349  0.30039780    -0.53900
C1648       C  0.39958214  0.89951557  0.29072557     0.09300
C1649       C  0.38956252  0.87035334  0.30052908     0.20200
C1650       C  0.41005289  0.87501920  0.34272170    -0.54600
C1651       C  0.39076154  0.87152247  0.33314631     0.09400
C1652       C  0.42325113  0.84921557  0.30114340    -0.54200
C1653       C  0.40422849  0.84529269  0.29136661     0.09900
H1654       H  0.42720886  0.92212192  0.29326024     0.14400
H1655       H  0.37442836  0.86760987  0.29147668     0.00200
H1656       H  0.41400006  0.87688053  0.36471349     0.14700
H1657       H  0.43548531  0.83410431  0.29559086     0.14500
C1658       C  0.33725530  0.86728485  0.36605195     0.86300
C1659       C  0.34146270  0.89385014  0.38550112    -0.53900
C1660       C  0.36047183  0.89500869  0.39563701     0.09300
C1661       C  0.37411272  0.86938103  0.38494943     0.20200
C1662       C  0.35336601  0.86915139  0.34279284    -0.54600
C1663       C  0.37278213  0.87032047  0.35236668     0.09400
C1664       C  0.34383182  0.83946876  0.38352582    -0.54200
C1665       C  0.36303194  0.84052833  0.39342442     0.09900
H1666       H  0.33004027  0.91020868  0.39138618     0.14400
H1667       H  0.38945727  0.87030916  0.39352189     0.00200
H1668       H  0.34935904  0.86934614  0.32073497     0.14700
H1669       H  0.33464743  0.82016332  0.38823226     0.14500
Zn1670     Zn  0.11340601  0.92241012  0.34624868     1.49700
Zn1671     Zn  0.14850633  0.88561950  0.37800908     1.49400
Zn1672     Zn  0.11492060  0.85031229  0.34357752     1.49100
Zn1673     Zn  0.14768330  0.88965723  0.31067651     1.49500
O1674       O  0.13111666  0.88700753  0.34472760    -1.84300
O1675       O  0.11728520  0.94495247  0.38274264    -0.74900
O1676       O  0.14356570  0.84784327  0.40114677    -0.74700
O1677       O  0.08549932  0.86057784  0.34185462    -0.74300
O1678       O  0.14291137  0.92130920  0.40327085    -0.74900
O1679       O  0.08439152  0.91043567  0.34340503    -0.74500
O1680       O  0.12008126  0.82362872  0.37763536    -0.75100
O1681       O  0.14299790  0.85421701  0.28548049    -0.74500
O1682       O  0.17791781  0.88573440  0.36673204    -0.75300
O1683       O  0.12067828  0.82639145  0.30842182    -0.74700
O1684       O  0.17714445  0.88983662  0.32016150    -0.75100
O1685       O  0.14112416  0.92659291  0.28769530    -0.75000
O1686       O  0.11825381  0.95058114  0.31325936    -0.74800
C1687       C  0.12975265  0.94220180  0.40288463     0.77000
C1688       C  0.13195070  0.82540147  0.39856817     0.77500
C1689       C  0.07564259  0.88517544  0.34164595     0.76400
C1690       C  0.13187976  0.83112156  0.28710317     0.76800
C1691       C  0.18693173  0.88729589  0.34301641     0.77900
C1692       C  0.12912644  0.94865152  0.29120077     0.77000
C1693       C  0.08787534  0.63261909  0.06900569     0.86300
C1694       C  0.09442688  0.60693322  0.04932164    -0.53900
C1695       C  0.11405995  0.60784542  0.04132632     0.09300
C1696       C  0.12549116  0.63504701  0.05280077     0.20200
C1697       C  0.10303906  0.63190350  0.09338216    -0.54600
C1698       C  0.12281432  0.63337545  0.08514759     0.09400
C1699       C  0.09341559  0.66098652  0.05179171    -0.54200
C1700       C  0.11304674  0.66254501  0.04375884     0.09900
H1701       H  0.08427783  0.58986767  0.04159655     0.14400
H1702       H  0.14118446  0.63614509  0.04516684     0.00200
H1703       H  0.09822076  0.63032096  0.11515250     0.14700
H1704       H  0.08276371  0.67776244  0.04461442     0.14500
C1705       C  0.17501606  0.63473083  0.12120429     0.86300
C1706       C  0.16802077  0.61277323  0.14446337    -0.53900
C1707       C  0.14868254  0.61645225  0.15274340     0.09300
C1708       C  0.13753886  0.64163679  0.13710145     0.20200
C1709       C  0.15966393  0.63063179  0.09743485    -0.54600
C1710       C  0.13998593  0.63449346  0.10542480     0.09400
C1711       C  0.17010734  0.66582751  0.13387973    -0.54200
C1712       C  0.15050929  0.66956897  0.14201127     0.09900
H1713       H  0.17726072  0.59640736  0.15530244     0.14400
H1714       H  0.12187893  0.64465958  0.14449207     0.00200
H1715       H  0.16431750  0.62504379  0.07618927     0.14700
H1716       H  0.18148286  0.68265198  0.13781568     0.14500
C1717       C  0.11690336  0.77283592  0.23267394    -0.11500
C1718       C  0.13570682  0.76497023  0.22136400     0.15000
C1719       C  0.15298670  0.77989489  0.23111888     0.01900
C1720       C  0.15110201  0.80207858  0.25175330    -0.15900
C1721       C  0.13242692  0.80914516  0.26383309    -0.10700
C1722       C  0.11506532  0.79458041  0.25380821     0.08600
C1723       C  0.13694762  0.74108531  0.19962124     0.09700
S1724       S  0.17798599  0.77086381  0.21904691    -0.25000
H1725       H  0.16450922  0.81306577  0.25929571     0.19900
S1726       S  0.09012843  0.80327950  0.26636418    -0.30700
H1727       H  0.10353764  0.76190944  0.22493935     0.10200
C1728       C  0.13128573  0.71125608  0.20571127     0.03400
C1729       C  0.13437310  0.68888892  0.18544454    -0.13000
C1730       C  0.14364929  0.69532184  0.15953537    -0.08700
C1731       C  0.14793825  0.72553287  0.15266310     0.06900
C1732       C  0.14459023  0.74803734  0.17276252    -0.13800
S1733       S  0.12180505  0.70089525  0.24010468    -0.30700
H1734       H  0.13068722  0.66588239  0.19058680     0.11100
S1735       S  0.15733049  0.73683850  0.11859134    -0.27800
H1736       H  0.14833671  0.77108997  0.16765378     0.08400
H1737       H  0.09352632  0.83423317  0.26974255     0.26800
H1738       H  0.11645868  0.67125626  0.23331825     0.21600
H1739       H  0.14913965  0.71262076  0.10365565     0.26900
H1740       H  0.17458916  0.73991981  0.21567415     0.15700
C1741       C  0.11278683  0.51626600  0.24519950    -0.11500
C1742       C  0.13119640  0.52485931  0.23340450     0.15000
C1743       C  0.14559486  0.00047564  0.23213695     0.01900
C1744       C  0.14520985  0.97762886  0.25242906    -0.15900
C1745       C  0.12810383  0.97247771  0.26914565    -0.10700
C1746       C  0.11071313  0.99025346  0.26426081     0.08600
C1747       C  0.13196551  0.55112371  0.21413777     0.09700
S1748       S  0.16825613  0.00467035  0.21158545    -0.25000
H1749       H  0.15854843  0.96397481  0.25536995     0.19900
S1750       S  0.08701942  0.98346826  0.28146978    -0.30700
H1751       H  0.09927602  0.52849813  0.23958369     0.10200
C1752       C  0.12401515  0.55005486  0.18667579     0.03400
C1753       C  0.12801012  0.57361921  0.16774862    -0.13000
C1754       C  0.14018428  0.59776122  0.17556630    -0.08700
C1755       C  0.14717687  0.59957261  0.20366419     0.06900
C1756       C  0.14259848  0.57653922  0.22265558    -0.13800
S1757       S  0.11056315  0.51740500  0.17477858    -0.30700
H1758       H  0.12302181  0.57207221  0.14611952     0.11100
S1759       S  0.16300302  0.62920228  0.21687569    -0.27800
H1760       H  0.14848946  0.57747945  0.24387707     0.08400
H1761       H  0.08844162  0.95198080  0.27941606     0.26800
H1762       H  0.10472358  0.52933607  0.14856458     0.21600
H1763       H  0.16574215  0.64575830  0.19215049     0.26900
H1764       H  0.16617964  0.52686599  0.19953883     0.15700
C1765       C  0.14602794  0.77299974  0.46000256    -0.11500
C1766       C  0.12895283  0.75489047  0.46174081     0.15000
C1767       C  0.11324755  0.75945613  0.44230661     0.01900
C1768       C  0.11487716  0.78216497  0.42193529    -0.15900
C1769       C  0.13171973  0.80107108  0.42043780    -0.10700
C1770       C  0.14759782  0.79594248  0.43977117     0.08600
C1771       C  0.12772162  0.73176346  0.48423052     0.09700
S1772       S  0.09087660  0.73674324  0.44169452    -0.25000
H1773       H  0.10258193  0.78535326  0.40736015     0.19900
S1774       S  0.17060742  0.81685824  0.43915432    -0.30700
H1775       H  0.15821429  0.76930966  0.47466997     0.10200
C1776       C  0.13458918  0.70211502  0.47998684     0.03400
C1777       C  0.13078529  0.68067704  0.00066032    -0.13000
C1778       C  0.12077338  0.68758047  0.02593402    -0.08700
C1779       C  0.11648270  0.71804688  0.03215401     0.06900
C1780       C  0.12041042  0.74029829  0.01196675    -0.13800
S1781       S  0.14742107  0.69203741  0.44779027    -0.30700
H1782       H  0.13476769  0.65762224  0.99624974     0.11100
S1783       S  0.10605256  0.73001991  0.06544050    -0.27800
H1784       H  0.11394273  0.76243579  0.51358713     0.08400
H1785       H  0.16119151  0.84324134  0.44896155     0.26800
H1786       H  0.15144587  0.66194733  0.45512009     0.21600
H1787       H  0.11423804  0.70629777  0.08140736     0.26900
H1788       H  0.09066856  0.72803322  0.47009474     0.15700
C1789       C  0.11315391  0.50608879  0.45067782    -0.11500
C1790       C  0.13165156  0.51556995  0.46118474     0.15000
C1791       C  0.14713986  0.00137280  0.45391914     0.01900
C1792       C  0.14705354  0.97847016  0.43375276    -0.15900
C1793       C  0.12918270  0.96412752  0.42615962    -0.10700
C1794       C  0.11113828  0.97212166  0.44004784     0.08600
C1795       C  0.13145591  0.54072596  0.48141361     0.09700
S1796       S  0.16985231  0.00273276  0.97532859    -0.25000
H1797       H  0.16097002  0.97240535  0.42327203     0.19900
S1798       S  0.08763995  0.95357687  0.43359280    -0.30700
H1799       H  0.09961746  0.51737727  0.45776150     0.10200
C1800       C  0.12691254  0.57019472  0.47243167     0.03400
C1801       C  0.12181256  0.59308688  0.99240493    -0.13000
C1802       C  0.12256957  0.58595099  0.02113327    -0.08700
C1803       C  0.12881827  0.55690708  0.02953892     0.06900
C1804       C  0.13318309  0.53522880  0.00901502    -0.13800
S1805       S  0.12528570  0.57911267  0.43537198    -0.30700
H1806       H  0.11655299  0.61510492  0.98605169     0.11100
S1807       S  0.13012560  0.54558686  0.06597893    -0.27800
H1808       H  0.13697532  0.51253508  0.01550506     0.08400
H1809       H  0.09607141  0.92523165  0.42769097     0.26800
H1810       H  0.12213194  0.61020852  0.43858789     0.21600
H1811       H  0.13516200  0.57399240  0.07644940     0.26900
H1812       H  0.17012334  0.54022583  0.97279090     0.15700
C1813       C  0.28709310  0.89737749  0.33575762    -0.11500
C1814       C  0.27349318  0.87564377  0.34509279     0.15000
C1815       C  0.28084124  0.84937366  0.35806530     0.01900
C1816       C  0.30137629  0.84613117  0.36304223    -0.15900
C1817       C  0.31531789  0.86863838  0.35553343    -0.10700
C1818       C  0.30783229  0.89422809  0.34061089     0.08600
C1819       C  0.25162955  0.88173015  0.34334312     0.09700
S1820       S  0.26452368  0.81995522  0.37062735    -0.25000
H1821       H  0.30584758  0.82584674  0.37371155     0.19900
S1822       S  0.32427957  0.92401679  0.32878102    -0.30700
H1823       H  0.28128536  0.91738059  0.32554407     0.10200
C1824       C  0.24110009  0.89438946  0.36623924     0.03400
C1825       C  0.22008288  0.89642389  0.36537640    -0.13000
C1826       C  0.20924142  0.88576945  0.34213120    -0.08700
C1827       C  0.22002026  0.87339644  0.31901611     0.06900
C1828       C  0.24102100  0.87219617  0.31964702    -0.13800
S1829       S  0.25449218  0.90755624  0.39675618    -0.30700
H1830       H  0.21204635  0.90618120  0.38299987     0.11100
S1831       S  0.20802445  0.85636300  0.28913893    -0.27800
H1832       H  0.24912076  0.86205134  0.30223099     0.08400
H1833       H  0.30953072  0.94249382  0.31647462     0.26800
H1834       H  0.23751137  0.91462021  0.41318284     0.21600
H1835       H  0.19388695  0.84054332  0.30544715     0.26900
H1836       H  0.25078994  0.82183107  0.34836625     0.15700
C1837       C  0.22719547  0.65096775  0.08785298    -0.11500
C1838       C  0.23909132  0.62818029  0.09975050     0.15000
C1839       C  0.22975454  0.60551953  0.11570714     0.01900
C1840       C  0.20920120  0.60718261  0.12114063    -0.15900
C1841       C  0.19714978  0.63136158  0.11151677    -0.10700
C1842       C  0.20635725  0.65253243  0.09304667     0.08600
C1843       C  0.26131239  0.62939581  0.09717642     0.09700
S1844       S  0.24339444  0.57392064  0.13019343    -0.25000
H1845       H  0.20300570  0.58855274  0.13274371     0.19900
S1846       S  0.19185084  0.68173717  0.07589608    -0.30700
H1847       H  0.23439925  0.66793102  0.07496792     0.10200
C1848       C  0.27143540  0.62273404  0.07184908     0.03400
C1849       C  0.29254196  0.62212912  0.07132851    -0.13000
C1850       C  0.30391788  0.62804085  0.09567901    -0.08700
C1851       C  0.29346483  0.63555371  0.12087463     0.06900
C1852       C  0.27248094  0.63575565  0.12131380    -0.13800
S1853       S  0.25746343  0.61368918  0.04054191    -0.30700
H1854       H  0.30018141  0.61650000  0.05187593     0.11100
S1855       S  0.30565259  0.64586804  0.15320501    -0.27800
H1856       H  0.26468677  0.64101077  0.14079948     0.08400
H1857       H  0.20778892  0.69523764  0.06116330     0.26800
H1858       H  0.27404377  0.60565612  0.02370437     0.21600
H1859       H  0.31822704  0.66708537  0.14008727     0.26900
H1860       H  0.25784913  0.57220245  0.10859776     0.15700
C1861       C  0.36197488  0.72794629  0.97213553    -0.11500
C1862       C  0.38216510  0.74049415  0.46579728     0.15000
C1863       C  0.39991845  0.73284515  0.48037740     0.01900
C1864       C  0.39777348  0.71371917  0.99937353    -0.15900
C1865       C  0.37986990  0.70007402  0.00832313    -0.10700
C1866       C  0.36177643  0.70732128  0.99435113     0.08600
C1867       C  0.38120527  0.76525522  0.44474563     0.09700
S1868       S  0.42410465  0.74777779  0.47079520    -0.25000
H1869       H  0.41177365  0.70805344  0.00966584     0.19900
S1870       S  0.33766616  0.69305401  0.00518056    -0.30700
H1871       H  0.34790958  0.73430304  0.96235374     0.10200
C1872       C  0.37345985  0.76079528  0.41751923     0.03400
C1873       C  0.36878504  0.78578358  0.40065147    -0.13000
C1874       C  0.37175378  0.81528962  0.41027950    -0.08700
C1875       C  0.38114960  0.81956730  0.43663358     0.06900
C1876       C  0.38558676  0.79451414  0.45357635    -0.13800
S1877       S  0.36912805  0.72331243  0.40446253    -0.30700
H1878       H  0.36215463  0.78238985  0.38013792     0.11100
S1879       S  0.38592075  0.85650949  0.45051096    -0.27800
H1880       H  0.39141513  0.79779340  0.47458684     0.08400
H1881       H  0.34142723  0.69558431  0.03421409     0.26800
H1882       H  0.36322403  0.73178651  0.37714940     0.21600
H1883       H  0.39832518  0.84731874  0.47285931     0.26900
H1884       H  0.41965039  0.75248372  0.44219217     0.15700
C1885       C  0.38953719  0.98928671  0.99986986    -0.11500
C1886       C  0.37571730  0.49047626  0.47883818     0.15000
C1887       C  0.36590853  0.51835968  0.47494411     0.01900
C1888       C  0.36871729  0.54191018  0.99045949    -0.15900
C1889       C  0.37959693  0.53662275  0.01538660    -0.10700
C1890       C  0.38908048  0.50816434  0.01883630     0.08600
C1891       C  0.37539526  0.96541452  0.45367599     0.09700
S1892       S  0.35087051  0.52681130  0.44436887    -0.25000
H1893       H  0.36132457  0.56337407  0.98718276     0.19900
S1894       S  0.40212729  0.49705610  0.05037662    -0.30700
H1895       H  0.39642120  0.96742973  0.00312592     0.10200
C1896       C  0.38773564  0.95983133  0.42999225     0.03400
C1897       C  0.38303108  0.93600722  0.41173336    -0.13000
C1898       C  0.36634641  0.91764228  0.41692240    -0.08700
C1899       C  0.35478219  0.92235766  0.44162671     0.06900
C1900       C  0.35927108  0.94629314  0.45934471    -0.13800
S1901       S  0.40945560  0.98279072  0.42318970    -0.30700
H1902       H  0.39203053  0.93208295  0.39304835     0.11100
S1903       S  0.33435468  0.89835866  0.45235138    -0.27800
H1904       H  0.35004875  0.95010185  0.47787131     0.08400
H1905       H  0.38672752  0.50699398  0.06852740     0.26800
H1906       H  0.41504762  0.96907357  0.39765957     0.21600
H1907       H  0.34228028  0.87182043  0.44073170     0.26900
H1908       H  0.36078991  0.50743994  0.42556182     0.15700
C1909       C  0.40222966  0.00051095  0.19573861    -0.11500
C1910       C  0.38434155  0.99176243  0.20901759     0.15000
C1911       C  0.36685431  0.51110279  0.20235915     0.01900
C1912       C  0.36767526  0.53490070  0.18302155    -0.15900
C1913       C  0.38534919  0.54138761  0.16794013    -0.10700
C1914       C  0.40281953  0.52412969  0.17350056     0.08600
C1915       C  0.38512448  0.96664738  0.22970374     0.09700
S1916       S  0.34325892  0.50415702  0.21985217    -0.25000
H1917       H  0.35417105  0.54790179  0.17913560     0.19900
S1918       S  0.42697378  0.53227284  0.15810977    -0.30700
H1919       H  0.41603226  0.98861625  0.20054978     0.10200
C1920       C  0.38942380  0.93689919  0.22123681     0.03400
C1921       C  0.39220846  0.91444576  0.24173544    -0.13000
C1922       C  0.39093217  0.92122957  0.27048569    -0.08700
C1923       C  0.38559813  0.95060556  0.27889437     0.06900
C1924       C  0.38282110  0.97300925  0.25847611    -0.13800
S1925       S  0.39194983  0.92772053  0.18436404    -0.30700
H1926       H  0.39655616  0.89194032  0.23547456     0.11100
S1927       S  0.38322631  0.96105376  0.31543387    -0.27800
H1928       H  0.37946019  0.99578170  0.26508127     0.08400
H1929       H  0.42473685  0.56367961  0.15988021     0.26800
H1930       H  0.39673665  0.89714013  0.18811080     0.21600
H1931       H  0.37704908  0.93263411  0.32497680     0.26900
H1932       H  0.34662589  0.96774075  0.22246033     0.15700
C1933       C  0.38249693  0.76079349  0.18070287    -0.11500
C1934       C  0.38781618  0.75280044  0.20835192     0.15000
C1935       C  0.39006389  0.72198908  0.21514099     0.01900
C1936       C  0.38730620  0.70015540  0.19424997    -0.15900
C1937       C  0.38296125  0.70824136  0.16629781    -0.10700
C1938       C  0.38005298  0.73898059  0.15972172     0.08600
C1939       C  0.39159918  0.77705238  0.22927902     0.09700
S1940       S  0.39733176  0.70908364  0.24969143    -0.25000
H1941       H  0.38951941  0.67667113  0.19958242     0.19900
S1942       S  0.37278361  0.75177642  0.12515153    -0.30700
H1943       H  0.38039741  0.78429905  0.17538057     0.10200
C1944       C  0.40811429  0.79649556  0.22620479     0.03400
C1945       C  0.41164317  0.81856387  0.24660689    -0.13000
C1946       C  0.39934670  0.82138866  0.27057547    -0.08700
C1947       C  0.38302849  0.80151928  0.27394817     0.06900
C1948       C  0.37910298  0.78002702  0.25306741    -0.13800
S1949       S  0.42529897  0.79243319  0.19689965    -0.30700
H1950       H  0.42414666  0.83373962  0.24394605     0.11100
S1951       S  0.36750912  0.80113518  0.30512362    -0.27800
H1952       H  0.36658070  0.76487042  0.25578855     0.08400
H1953       H  0.36135175  0.72631633  0.11851609     0.26800
H1954       H  0.43875974  0.81501745  0.20497044     0.21600
H1955       H  0.38309008  0.80805365  0.32383261     0.26900
H1956       H  0.40981538  0.73351699  0.25587889     0.15700
C1957       C  0.97658604  0.89411054  0.32166109    -0.11500
C1958       C  0.98989618  0.87321720  0.33349748     0.15000
C1959       C  0.98219023  0.84797776  0.34772524     0.01900
C1960       C  0.96150685  0.84470276  0.35074367    -0.15900
C1961       C  0.94791050  0.86718153  0.34171585    -0.10700
C1962       C  0.95572491  0.89121474  0.32518703     0.08600
C1963       C  0.01173321  0.87877278  0.33210237     0.09700
S1964       S  0.99795718  0.81973807  0.36396116    -0.25000
H1965       H  0.95659822  0.82460596  0.36117792     0.19900
S1966       S  0.93943419  0.91873677  0.30877113    -0.30700
H1967       H  0.98265683  0.91302256  0.31010903     0.10200
C1968       C  0.02473577  0.85996280  0.31661935     0.03400
C1969       C  0.04551388  0.86261242  0.32016360    -0.13000
C1970       C  0.05359462  0.88411237  0.33848019    -0.08700
C1971       C  0.04045758  0.90400750  0.35279460     0.06900
C1972       C  0.01973116  0.90124270  0.34927504    -0.13800
S1973       S  0.01482277  0.83252745  0.29250931    -0.30700
H1974       H  0.05554308  0.84787558  0.30860093     0.11100
S1975       S  0.04898584  0.93190057  0.37735355    -0.27800
H1976       H  0.00970396  0.91566509  0.36122769     0.08400
H1977       H  0.95453063  0.93710622  0.29734015     0.26800
H1978       H  0.03340897  0.82141602  0.28286989     0.21600
H1979       H  0.06365365  0.91321145  0.38960899     0.26900
H1980       H  0.01288301  0.83961079  0.37306166     0.15700
C1981       C  0.89261855  0.50079537  0.18965016    -0.11500
C1982       C  0.87432481  0.48614599  0.19398673     0.15000
C1983       C  0.85786994  0.49319135  0.17650437     0.01900
C1984       C  0.85994013  0.51530915  0.15566561    -0.15900
C1985       C  0.87819905  0.53038143  0.15146232    -0.10700
C1986       C  0.89485581  0.52235658  0.16835436     0.08600
C1987       C  0.87647013  0.96246756  0.21597374     0.09700
S1988       S  0.83373370  0.47535865  0.18002174    -0.25000
H1989       H  0.84704957  0.52108950  0.14288730     0.19900
S1990       S  0.91956385  0.53767453  0.16312922    -0.30700
H1991       H  0.90873102  0.99280288  0.19954347     0.10200
C1992       C  0.88289006  0.93266484  0.21142885     0.03400
C1993       C  0.87965814  0.91104030  0.23250348    -0.13000
C1994       C  0.86990244  0.91861274  0.25777283    -0.08700
C1995       C  0.86546163  0.94916682  0.26325944     0.06900
C1996       C  0.86840191  0.97061799  0.24212859    -0.13800
S1997       S  0.89394196  0.92185592  0.17815609    -0.30700
H1998       H  0.88390722  0.88796795  0.22871689     0.11100
S1999       S  0.85663002  0.96235694  0.29696702    -0.27800
H2000       H  0.86419903  0.99382031  0.24596853     0.08400
H2001       H  0.91839273  0.53809117  0.13354622     0.26800
H2002       H  0.89673920  0.89127018  0.18472588     0.21600
H2003       H  0.86583992  0.93931701  0.31272767     0.26900
H2004       H  0.84066290  0.44793062  0.19111472     0.15700
C2005       C  0.85947274  0.73578432  0.18382364    -0.11500
C2006       C  0.87733889  0.74364912  0.19732684     0.15000
C2007       C  0.89510092  0.72757627  0.19121658     0.01900
C2008       C  0.89465836  0.70415187  0.17162300    -0.15900
C2009       C  0.87693388  0.69685510  0.15734367    -0.10700
C2010       C  0.85901998  0.71256848  0.16406289     0.08600
C2011       C  0.87679048  0.76886943  0.21750966     0.09700
S2012       S  0.91885775  0.73650300  0.20701544    -0.25000
H2013       H  0.90848008  0.69233635  0.16664517     0.19900
S2014       S  0.83500488  0.70366771  0.14891797    -0.30700
H2015       H  0.84574336  0.74783780  0.18881766     0.10200
C2016       C  0.87490636  0.79874950  0.20796397     0.03400
C2017       C  0.87176996  0.82180689  0.22751754    -0.13000
C2018       C  0.87113890  0.81571528  0.25646310    -0.08700
C2019       C  0.87439057  0.78602688  0.26608744     0.06900
C2020       C  0.87694571  0.76282592  0.24651378    -0.13800
S2021       S  0.87589172  0.80736459  0.17079253    -0.30700
H2022       H  0.86852679  0.84428485  0.22009649     0.11100
S2023       S  0.87443726  0.77634905  0.30299548    -0.27800
H2024       H  0.87860103  0.73986909  0.25387354     0.08400
H2025       H  0.83833748  0.67242364  0.14815824     0.26800
H2026       H  0.87643894  0.83880997  0.17371178     0.21600
H2027       H  0.88224342  0.80388005  0.31214435     0.26900
H2028       H  0.91531757  0.76755753  0.20942179     0.15700
C2029       C  0.86327430  0.50238582  0.47017967    -0.11500
C2030       C  0.88195326  0.49239215  0.46011766     0.15000
C2031       C  0.89960449  0.50578765  0.47047416     0.01900
C2032       C  0.89982718  0.52765004  0.98810124    -0.15900
C2033       C  0.87955966  0.53878978  0.50058019    -0.10700
C2034       C  0.86187884  0.52530428  0.49026080     0.07000
C2035       C  0.88661426  0.96840906  0.43537655     0.09700
S2036       S  0.92761742  0.98948897  0.46263335    -0.25000
H2037       H  0.91342920  0.53630181  0.99739994     0.19900
S2038       S  0.83709339  0.53710344  0.50076909    -0.30700
H2039       H  0.84966943  0.49256990  0.46197745     0.10200
C2040       C  0.87993249  0.93878044  0.43991789     0.03400
C2041       C  0.88374673  0.91681684  0.41943173    -0.13000
C2042       C  0.89398678  0.92389204  0.39439214    -0.08700
C2043       C  0.89889399  0.95423310  0.38880253     0.06900
C2044       C  0.89548781  0.97599389  0.40950245    -0.13800
S2045       S  0.86790330  0.92829588  0.47261570    -0.30700
H2046       H  0.87974966  0.89372042  0.42372087     0.11100
S2047       S  0.90909300  0.96679054  0.35558845    -0.27800
H2048       H  0.89998635  0.99899701  0.40557303     0.08400
H2049       H  0.84181013  0.56784618  0.50200459     0.26800
H2050       H  0.86194190  0.89945120  0.46410186     0.21600
H2051       H  0.90007844  0.94418861  0.33940631     0.26900
H2052       H  0.92206837  0.95973147  0.45677217     0.15700
C2053       C  0.89647788  0.80145205  0.45059220    -0.11500
C2054       C  0.88595401  0.77591297  0.44185482     0.15000
C2055       C  0.87767633  0.77541887  0.41444487     0.01900
C2056       C  0.88097573  0.79966829  0.39610093    -0.15900
C2057       C  0.89289278  0.82391826  0.40423592    -0.10700
C2058       C  0.90036378  0.82516450  0.43192029     0.08600
C2059       C  0.88460043  0.74996734  0.46157739     0.09700
S2060       S  0.86397886  0.74381831  0.40092599    -0.25000
H2061       H  0.87544255  0.79861636  0.37469358     0.19900
S2062       S  0.91569492  0.85628373  0.44305232    -0.30700
H2063       H  0.90241736  0.80209187  0.47176733     0.10200
C2064       C  0.90199352  0.73458534  0.47073268     0.03400
C2065       C  0.90023847  0.71087903  0.49011949    -0.13000
C2066       C  0.88147992  0.70211519  0.50080049    -0.08700
C2067       C  0.86402351  0.71700784  0.49091545     0.06900
C2068       C  0.86580561  0.74095062  0.47181191    -0.13800
S2069       S  0.92650439  0.74461606  0.45738234    -0.30700
H2070       H  0.91053925  0.69185698  0.98893768     0.11100
S2071       S  0.83902482  0.70590667  0.50092673    -0.27800
H2072       H  0.85240998  0.75253247  0.46468489     0.08400
H2073       H  0.91879417  0.84631809  0.47084312     0.26800
H2074       H  0.93134944  0.70910353  0.95497692     0.21600
H2075       H  0.84336206  0.67493231  0.50173635     0.26900
H2076       H  0.87516939  0.72168749  0.41518744     0.15700
C2077       C  0.99064450  0.61443389  0.10866276    -0.11500
C2078       C  0.00119100  0.62255475  0.08421596     0.15000
C2079       C  0.99037702  0.62756249  0.05910468     0.01900
C2080       C  0.96941573  0.62586189  0.05928821    -0.15900
C2081       C  0.95857817  0.61833256  0.08381164    -0.10700
C2082       C  0.96956662  0.61202938  0.10883159     0.08600
C2083       C  0.02339199  0.62625952  0.08540198     0.09700
S2084       S  0.00243324  0.63608504  0.02593647    -0.25000
H2085       H  0.96152650  0.63045801  0.03983580     0.19900
S2086       S  0.95734825  0.60028483  0.14111591    -0.30700
H2087       H  0.99903844  0.61026565  0.12775319     0.10200
C2088       C  0.03233943  0.65450788  0.08136398     0.03400
C2089       C  0.05322126  0.65643865  0.07812871    -0.13000
C2090       C  0.06567958  0.63062452  0.07854167    -0.08700
C2091       C  0.05680527  0.60313779  0.08741266     0.06900
C2092       C  0.03576918  0.60111577  0.08987851    -0.13800
S2093       S  0.01712754  0.68826036  0.08063126    -0.30700
H2094       H  0.05964842  0.67844573  0.07561914     0.11100
S2095       S  0.07196433  0.57059569  0.09618209    -0.27800
H2096       H  0.02885125  0.57975326  0.09470739     0.08400
H2097       H  0.97474062  0.59587222  0.15729316     0.26800
H2098       H  0.03258529  0.70833712  0.07357236     0.21600
H2099       H  0.05609299  0.55105434  0.10269632     0.26900
H2100       H  0.02012398  0.61969538  0.03115676     0.15700
C2101       C  0.72474000  0.60634836  0.09589347    -0.11500
C2102       C  0.73853205  0.62719075  0.08536853     0.15000
C2103       C  0.73150571  0.65290689  0.07111890     0.01900
C2104       C  0.71101964  0.65682968  0.06687412    -0.15900
C2105       C  0.69697906  0.63472185  0.07482292    -0.10700
C2106       C  0.70405750  0.60994802  0.09117986     0.08600
C2107       C  0.76025841  0.62119067  0.08783113     0.09700
S2108       S  0.74629400  0.68572959  0.55905217    -0.25000
H2109       H  0.70665110  0.67724822  0.05632067     0.19900
S2110       S  0.68712557  0.58214808  0.10561005    -0.30700
H2111       H  0.73029456  0.58685674  0.10720411     0.10200
C2112       C  0.77257502  0.63916335  0.10480691     0.03400
C2113       C  0.79345532  0.63734622  0.10162048    -0.13000
C2114       C  0.80226178  0.61758617  0.08205552    -0.08700
C2115       C  0.78981007  0.59858619  0.06604220     0.06900
C2116       C  0.76899184  0.60035320  0.06936187    -0.13800
S2117       S  0.76161768  0.66470932  0.13012351    -0.30700
H2118       H  0.80299351  0.65139699  0.11437797     0.11100
S2119       S  0.79934379  0.57349268  0.03939936    -0.27800
H2120       H  0.75947165  0.58679958  0.05607889     0.08400
H2121       H  0.70115575  0.56720840  0.12278523     0.26800
H2122       H  0.77970649  0.67759551  0.13909469     0.21600
H2123       H  0.81420071  0.59329839  0.02956308     0.26900
H2124       H  0.76296407  0.66086216  0.04734978     0.15700
C2125       C  0.52934841  0.64551273  0.11916423    -0.11500
C2126       C  0.52346519  0.63468805  0.09295804     0.15000
C2127       C  0.53813045  0.62836817  0.07239417     0.01900
C2128       C  0.55841327  0.63270534  0.07863752    -0.15900
C2129       C  0.56472388  0.64279421  0.10537743    -0.10700
C2130       C  0.54958080  0.64903968  0.12594195     0.08600
C2131       C  0.50181083  0.62994304  0.08837004     0.09700
S2132       S  0.53202713  0.61359311  0.03816596    -0.25000
H2133       H  0.56906341  0.62619189  0.06263198     0.19900
S2134       S  0.55524150  0.66068998  0.16149028    -0.30700
H2135       H  0.51786102  0.65059318  0.13466604     0.10200
C2136       C  0.49151983  0.60675123  0.10251801     0.03400
C2137       C  0.47059743  0.60512139  0.10046594    -0.13000
C2138       C  0.45972179  0.62628673  0.08459461    -0.08700
C2139       C  0.47027538  0.64841976  0.06907941     0.06900
C2140       C  0.49114701  0.65023528  0.07144364    -0.13800
S2141       S  0.50504433  0.57952036  0.12356038    -0.30700
H2142       H  0.46260453  0.58794833  0.11210158     0.11100
S2143       S  0.45812327  0.67453977  0.04548377    -0.27800
H2144       H  0.49913076  0.66779608  0.06027464     0.08400
H2145       H  0.53613870  0.65597045  0.17332998     0.26800
H2146       H  0.48838694  0.56199706  0.13123820     0.21600
H2147       H  0.44345042  0.65420173  0.03637582     0.26900
H2148       H  0.51473155  0.59799292  0.04658832     0.15700
C2149       C  0.74234797  0.89842090  0.31287239    -0.11500
C2150       C  0.75266322  0.87965682  0.33169750     0.15000
C2151       C  0.74195191  0.86523581  0.35355378     0.01900
C2152       C  0.72108028  0.86883621  0.35531525    -0.15900
C2153       C  0.71056597  0.88680764  0.33587732    -0.10700
C2154       C  0.72155673  0.90249200  0.31492310     0.08600
C2155       C  0.77432823  0.87420854  0.32671544     0.09700
S2156       S  0.75385475  0.84095899  0.37908096    -0.25000
H2157       H  0.71292363  0.85680245  0.37156405     0.19900
S2158       S  0.71013195  0.92857552  0.29057717    -0.30700
H2159       H  0.75057394  0.90982395  0.29629201     0.10200
C2160       C  0.78099675  0.84902869  0.31154028     0.03400
C2161       C  0.80146626  0.84561087  0.30545641    -0.13000
C2162       C  0.81580170  0.86710662  0.31383443    -0.08700
C2163       C  0.80885660  0.89171472  0.33048245     0.06900
C2164       C  0.78828232  0.89510793  0.33626734    -0.13800
S2165       S  0.76320470  0.82166656  0.29902382    -0.30700
H2166       H  0.80571203  0.82611785  0.29355089     0.11100
S2167       S  0.82576397  0.91971850  0.34411922    -0.27800
H2168       H  0.78291759  0.91439482  0.34801105     0.08400
H2169       H  0.69618674  0.94007326  0.31015616     0.26800
H2170       H  0.77682366  0.80407652  0.28339339     0.21600
H2171       H  0.81227495  0.93287785  0.36338670     0.26900
H2172       H  0.77301447  0.85381325  0.37760456     0.15700
C2173       C  0.64018873  0.53070876  0.50740294    -0.11500
C2174       C  0.63699094  0.53870677  0.47915855     0.15000
C2175       C  0.63636323  0.56942107  0.47156950     0.01900
C2176       C  0.63931967  0.59132458  0.49223146    -0.15900
C2177       C  0.64350904  0.58324859  0.52017855    -0.10700
C2178       C  0.64345709  0.55260027  0.52795226     0.08600
C2179       C  0.63517716  0.51445088  0.45805981     0.09700
S2180       S  0.63280773  0.58211703  0.43580372    -0.25000
H2181       H  0.63948199  0.61480349  0.48612971     0.19900
S2182       S  0.64907517  0.54061353  0.06261462    -0.30700
H2183       H  0.64048639  0.50717510  0.51335669     0.10200
C2184       C  0.65212260  0.49774759  0.44948263     0.03400
C2185       C  0.65199975  0.97450443  0.42982956    -0.13000
C2186       C  0.63340032  0.96803540  0.41744390    -0.08700
C2187       C  0.61633653  0.98513497  0.42558489     0.06900
C2188       C  0.61838692  0.00853869  0.44499282    -0.13800
S2189       S  0.67665710  0.50616258  0.46327387    -0.30700
H2190       H  0.66515342  0.96179874  0.42351792     0.11100
S2191       S  0.59140300  0.97765132  0.41298336    -0.27800
H2192       H  0.60530028  0.02156275  0.45111193     0.08400
H2193       H  0.64097399  0.56644034  0.07545651     0.26800
H2194       H  0.68651429  0.48076550  0.45217801     0.21600
H2195       H  0.59357449  0.94618455  0.41391140     0.26900
H2196       H  0.64213484  0.55744301  0.42267326     0.15700
C2197       C  0.62562912  0.72786108  0.49872667    -0.11500
C2198       C  0.63585655  0.72685533  0.47276512     0.15000
C2199       C  0.64882152  0.70237300  0.46709153     0.01900
C2200       C  0.65220064  0.68064218  0.48785793    -0.15900
C2201       C  0.64274059  0.68234483  0.51425006    -0.10700
C2202       C  0.62903151  0.70595688  0.51958431     0.08600
C2203       C  0.63452028  0.75289251  0.45313287     0.09700
S2204       S  0.66204760  0.69809574  0.43409678    -0.25000
H2205       H  0.66276329  0.66257014  0.48367448     0.19900
S2206       S  0.61777681  0.71156132  0.05179732    -0.30700
H2207       H  0.61571224  0.74661555  0.50327715     0.10200
C2208       C  0.61702849  0.75938764  0.43768240     0.03400
C2209       C  0.61710738  0.78317410  0.41806199    -0.13000
C2210       C  0.63443678  0.80046835  0.41322136    -0.08700
C2211       C  0.65203170  0.79340277  0.42858387     0.06900
C2212       C  0.65169963  0.77033498  0.44867980    -0.13800
S2213       S  0.59490249  0.73661582  0.44213028    -0.30700
H2214       H  0.60360300  0.78827623  0.40637593     0.11100
S2215       S  0.67585165  0.81121353  0.42220229    -0.27800
H2216       H  0.66527204  0.76506451  0.46021478     0.08400
H2217       H  0.63390460  0.70119666  0.06818723     0.26800
H2218       H  0.58323598  0.75100950  0.42142860     0.21600
H2219       H  0.67405215  0.81074351  0.39268371     0.26900
H2220       H  0.64752962  0.71258915  0.41741235     0.15700
C2221       C  0.61109669  0.56674070  0.20910084    -0.11500
C2222       C  0.62743258  0.54756860  0.20400242     0.15000
C2223       C  0.63888639  0.55167614  0.17907701     0.01900
C2224       C  0.63343898  0.57436900  0.15982047    -0.15900
C2225       C  0.61694387  0.59334336  0.16504045    -0.10700
C2226       C  0.60609755  0.58987112  0.19052982     0.08600
C2227       C  0.63089521  0.52266966  0.22450479     0.09700
S2228       S  0.66357571  0.03299191  0.17487749    -0.25000
H2229       H  0.64193650  0.57695857  0.14046067     0.19900
S2230       S  0.58612949  0.61469545  0.20149897    -0.30700
H2231       H  0.60211881  0.56373399  0.22798138     0.10200
C2232       C  0.63334919  0.52841101  0.25356771     0.03400
C2233       C  0.63382121  0.00298991  0.27426689    -0.13000
C2234       C  0.63201718  0.97338652  0.26457191    -0.08700
C2235       C  0.63095156  0.96812189  0.23525406     0.06900
C2236       C  0.63117823  0.99247382  0.21646204    -0.13800
S2237       S  0.63757115  0.56616495  0.26608445    -0.30700
H2238       H  0.63502056  0.00694558  0.29668240     0.11100
S2239       S  0.62796143  0.93110526  0.22056030    -0.27800
H2240       H  0.62941540  0.98833985  0.19413429     0.08400
H2241       H  0.59400105  0.64055072  0.18863536     0.26800
H2242       H  0.63580638  0.55961220  0.29499041     0.21600
H2243       H  0.61572333  0.92008438  0.24243267     0.26900
H2244       H  0.66802222  0.02620078  0.20311153     0.15700
C2245       C  0.63427839  0.71537088  0.19948818    -0.11500
C2246       C  0.62872145  0.74446065  0.19127782     0.15000
C2247       C  0.62110163  0.74936096  0.16401749     0.01900
C2248       C  0.61752714  0.72472202  0.14656392    -0.15900
C2249       C  0.62151397  0.69509441  0.15554545    -0.10700
C2250       C  0.63085575  0.69058670  0.18201941     0.08600
C2251       C  0.62933467  0.76837830  0.21279361     0.09700
S2252       S  0.61475085  0.78625285  0.15083395    -0.25000
H2253       H  0.61092543  0.72865613  0.12605675     0.19900
S2254       S  0.63717664  0.65368304  0.19525349    -0.30700
H2255       H  0.64039514  0.71202435  0.22035566     0.10200
C2256       C  0.61172045  0.77801936  0.22670125     0.03400
C2257       C  0.61311782  0.79852237  0.24895526    -0.13000
C2258       C  0.63178131  0.80949304  0.25769423    -0.08700
C2259       C  0.64941105  0.79958669  0.24376603     0.06900
C2260       C  0.64796797  0.77934116  0.22139636    -0.13800
S2261       S  0.58752711  0.76341609  0.21678899    -0.30700
H2262       H  0.59962223  0.80613693  0.25957488     0.11100
S2263       S  0.67423205  0.81040989  0.25454079    -0.27800
H2264       H  0.66152099  0.77135889  0.21111205     0.08400
H2265       H  0.64474233  0.66249024  0.22153913     0.26800
H2266       H  0.57613820  0.77918424  0.23696795     0.21600
H2267       H  0.66993055  0.80996433  0.28357564     0.26900
H2268       H  0.62799815  0.80223681  0.16809300     0.15700
C2269       C  0.52276232  0.86401469  0.32300615    -0.11500
C2270       C  0.51203814  0.88018560  0.34348329     0.15000
C2271       C  0.52269277  0.89760948  0.36318125     0.01900
C2272       C  0.54362988  0.89975318  0.36103553    -0.15900
C2273       C  0.55435351  0.88392987  0.34026597    -0.10700
C2274       C  0.54370070  0.86574585  0.32111052     0.08600
C2275       C  0.48981435  0.88125066  0.34136061     0.09700
S2276       S  0.51040594  0.91761026  0.39143218    -0.25000
H2277       H  0.55166815  0.91329235  0.37614130     0.19900
S2278       S  0.55578892  0.84544605  0.29283844    -0.30700
H2279       H  0.51467212  0.85087715  0.30764527     0.10200
C2280       C  0.48006527  0.90667684  0.33024051     0.03400
C2281       C  0.45935742  0.90596355  0.32549033    -0.13000
C2282       C  0.44787831  0.87984063  0.33055574    -0.08700
C2283       C  0.45753424  0.85545382  0.34460727     0.06900
C2284       C  0.47840026  0.85619654  0.34918009    -0.13800
S2285       S  0.49419896  0.93963477  0.32023211    -0.30700
H2286       H  0.45259410  0.92612091  0.31746236     0.11100
S2287       S  0.44361629  0.82298497  0.35655445    -0.27800
H2288       H  0.48597310  0.83704541  0.35849375     0.08400
H2289       H  0.57075059  0.86696390  0.28770895     0.26800
H2290       H  0.47770056  0.95901727  0.31631952     0.21600
H2291       H  0.45956117  0.80829970  0.37028751     0.26900
H2292       H  0.49375124  0.89850135  0.39354367     0.15700
Zn2293     Zn  0.61241901  0.92470702  0.84022431     1.49700
Zn2294     Zn  0.61343219  0.85261692  0.83814350     1.49400
Zn2295     Zn  0.64693257  0.89071860  0.80538246     1.49100
Zn2296     Zn  0.64716605  0.88777602  0.87270072     1.49500
O2297       O  0.62994467  0.88900222  0.83919927    -1.84300
O2298       O  0.58298814  0.91295408  0.84224341    -0.74900
O2299       O  0.61817597  0.82976223  0.80191534    -0.74700
O2300       O  0.64143527  0.92789314  0.78217033    -0.74300
O2301       O  0.58396383  0.86302346  0.84084843    -0.74900
O2302       O  0.61727569  0.95145710  0.80596712    -0.74500
O2303       O  0.64234008  0.85522647  0.78026724    -0.75100
O2304       O  0.67677164  0.88906412  0.86218807    -0.74500
O2305       O  0.62000510  0.82439802  0.87048191    -0.75300
O2306       O  0.67617176  0.89066679  0.81553486    -0.74700
O2307       O  0.64268450  0.84943378  0.89502211    -0.75100
O2308       O  0.64142785  0.92355845  0.89766185    -0.75000
O2309       O  0.61801338  0.94951020  0.87471616    -0.74800
C2310       C  0.57413899  0.88761712  0.84225831     0.77000
C2311       C  0.63040519  0.83306224  0.78143583     0.77500
C2312       C  0.62924199  0.94980068  0.78496133     0.76400
C2313       C  0.68588012  0.89025850  0.83854296     0.76800
C2314       C  0.63192454  0.82619714  0.89130939     0.77900
C2315       C  0.62967022  0.94615689  0.89566984     0.77000
C2316       C  0.58641573  0.64330026  0.61462863     0.86300
C2317       C  0.59359717  0.67179741  0.62965064    -0.53900
C2318       C  0.61266316  0.67017098  0.63999807     0.09300
C2319       C  0.62342825  0.64043823  0.63269921     0.20200
C2320       C  0.60220596  0.63927986  0.59098812    -0.54600
C2321       C  0.62171549  0.63793833  0.60017658     0.09400
C2322       C  0.59063289  0.61720938  0.63491223    -0.54200
C2323       C  0.60972139  0.61575468  0.64482374     0.09900
H2324       H  0.58417178  0.69155295  0.63236581     0.14400
H2325       H  0.63884400  0.63923706  0.64102601     0.00200
H2326       H  0.59847362  0.63930098  0.56897556     0.14700
H2327       H  0.57918760  0.60122245  0.64118274     0.14500
C2328       C  0.67475679  0.63624649  0.56585660     0.86300
C2329       C  0.66887190  0.66218762  0.54573663    -0.53900
C2330       C  0.64965198  0.66131296  0.53646059     0.09300
C2331       C  0.63769178  0.63451255  0.54782788     0.20200
C2332       C  0.65891676  0.63762078  0.58943585    -0.54600
C2333       C  0.63938283  0.63650217  0.58041024     0.09400
C2334       C  0.66966468  0.60797640  0.54885638    -0.54200
C2335       C  0.65037030  0.60694620  0.53960010     0.09900
H2336       H  0.67879488  0.67919642  0.53745861     0.14400
H2337       H  0.62237117  0.63358615  0.53906338     0.00200
H2338       H  0.66325108  0.63950184  0.61128171     0.14700
H2339       H  0.68064466  0.59073675  0.54359028     0.14500
Zn2340     Zn  0.86267814  0.58446504  0.57839805     1.49700
Zn2341     Zn  0.89788790  0.61939465  0.54584839     1.49400
Zn2342     Zn  0.86361470  0.65617526  0.57847096     1.49100
Zn2343     Zn  0.89649883  0.61877731  0.61348122     1.49500
O2344       O  0.88023073  0.61970865  0.57904248    -1.84300
O2345       O  0.86701037  0.55996575  0.54323188    -0.74900
O2346       O  0.89334427  0.65660577  0.52170262    -0.74700
O2347       O  0.83411796  0.64629558  0.58093303    -0.74300
O2348       O  0.89217593  0.58319803  0.52158877    -0.74900
O2349       O  0.83355367  0.59639654  0.58023223    -0.74500
O2350       O  0.86848064  0.68088374  0.54328219    -0.75100
O2351       O  0.89108331  0.65551783  0.63773340    -0.74500
O2352       O  0.92723757  0.61751068  0.55722552    -0.75300
O2353       O  0.86953849  0.68200386  0.61198371    -0.74700
O2354       O  0.92601482  0.61805949  0.60381636    -0.75100
O2355       O  0.89088458  0.58123197  0.63661095    -0.75000
O2356       O  0.86789703  0.55731512  0.61163712    -0.74800
C2357       C  0.87940770  0.56201616  0.52285698     0.77000
C2358       C  0.88092365  0.67848563  0.52296323     0.77500
C2359       C  0.82452419  0.62163240  0.58131987     0.76400
C2360       C  0.88003659  0.67868812  0.63410758     0.76800
C2361       C  0.93609167  0.61714102  0.58100537     0.77900
C2362       C  0.87938538  0.55880501  0.63292928     0.77000
C2363       C  0.92359984  0.86633361  0.85378919     0.86300
C2364       C  0.91723247  0.84171405  0.87491564    -0.53900
C2365       C  0.89803700  0.84417050  0.88432934     0.09300
C2366       C  0.88642535  0.87073218  0.87168032     0.20200
C2367       C  0.90786083  0.86450822  0.83029108    -0.54600
C2368       C  0.88829273  0.86700746  0.83933298     0.09400
C2369       C  0.91872822  0.89565937  0.86959374    -0.54200
C2370       C  0.89933269  0.89817188  0.87866130     0.09900
H2371       H  0.92680918  0.82440782  0.88363369     0.14400
H2372       H  0.87098000  0.87274456  0.88013248     0.00200
H2373       H  0.91223165  0.86137431  0.80851526     0.14700
H2374       H  0.92996500  0.91246194  0.87432853     0.14500
C2375       C  0.83535266  0.86716793  0.80516406     0.86300
C2376       C  0.84138616  0.84060914  0.78591479    -0.53900
C2377       C  0.86076272  0.84139435  0.77667958     0.09300
C2378       C  0.87259401  0.86864592  0.78725711     0.20200
C2379       C  0.85111580  0.86586313  0.82879904    -0.54600
C2380       C  0.87070015  0.86702849  0.81972185     0.09400
C2381       C  0.84066290  0.89506436  0.78760515    -0.54200
C2382       C  0.86012090  0.89640172  0.77866730     0.09900
H2383       H  0.83187787  0.82233098  0.77974717     0.14400
H2384       H  0.88810611  0.86925673  0.77898758     0.00200
H2385       H  0.84677748  0.86387413  0.85070796     0.14700
H2386       H  0.82960134  0.91205333  0.78209529     0.14500
Zn2387     Zn  0.39695135  0.65998879  0.59278053     1.49700
Zn2388     Zn  0.39847466  0.58775730  0.59377244     1.49400
Zn2389     Zn  0.36462591  0.62348319  0.62916457     1.49100
Zn2390     Zn  0.36306884  0.62149783  0.56150993     1.49500
O2391       O  0.38078989  0.62321690  0.59440662    -1.84300
O2392       O  0.42647311  0.64959633  0.59188063    -0.74900
O2393       O  0.39462943  0.56303019  0.62904587    -0.74700
O2394       O  0.37096592  0.65995576  0.65368078    -0.74300
O2395       O  0.42763360  0.59965813  0.59146134    -0.74900
O2396       O  0.39145586  0.68695168  0.62667315    -0.74500
O2397       O  0.36990697  0.58587951  0.65236788    -0.75100
O2398       O  0.33387133  0.62660957  0.57289624    -0.74500
O2399       O  0.39248704  0.56059528  0.56063598    -0.75300
O2400       O  0.33500474  0.62573314  0.61953933    -0.74700
O2401       O  0.36628943  0.58219553  0.54028238    -0.75100
O2402       O  0.36959660  0.65503960  0.53439511    -0.75000
O2403       O  0.39169683  0.68331417  0.55685909    -0.74800
C2404       C  0.43636353  0.62504272  0.59080986     0.77000
C2405       C  0.38267904  0.56457800  0.65001116     0.77500
C2406       C  0.38130681  0.68357800  0.64931649     0.76400
C2407       C  0.32503771  0.62782121  0.59674920     0.76800
C2408       C  0.37892166  0.56062061  0.54184073     0.77900
C2409       C  0.38070753  0.67818527  0.53554221     0.77000
C2410       C  0.42430293  0.88078567  0.82204160     0.86300
C2411       C  0.41654531  0.90624298  0.80260337    -0.53900
C2412       C  0.39766227  0.90198458  0.79269080     0.09300
C2413       C  0.38798156  0.87262644  0.80264673     0.20200
C2414       C  0.40810825  0.87839501  0.84504966    -0.54600
C2415       C  0.38896063  0.87442764  0.83527786     0.09400
C2416       C  0.42192206  0.85246889  0.80382757    -0.54200
C2417       C  0.40302097  0.84783629  0.79386224     0.09900
H2418       H  0.42499488  0.92549543  0.79554188     0.14400
H2419       H  0.37293560  0.86929310  0.79348553     0.00200
H2420       H  0.41181987  0.88089472  0.86707301     0.14700
H2421       H  0.43438243  0.83764277  0.79861806     0.14500
C2422       C  0.33527381  0.87244378  0.86724857     0.86300
C2423       C  0.33969575  0.89878701  0.88697612    -0.53900
C2424       C  0.35863105  0.89923786  0.89759359     0.09300
C2425       C  0.37192808  0.87309181  0.88694746     0.20200
C2426       C  0.35158374  0.87392770  0.84435796    -0.54600
C2427       C  0.37089065  0.87412508  0.85429417     0.09400
C2428       C  0.34110427  0.84447172  0.88492919    -0.54200
C2429       C  0.36021782  0.84473447  0.89503543     0.09900
H2430       H  0.32848001  0.91554835  0.89258671     0.14400
H2431       H  0.38719833  0.87316561  0.89590346     0.00200
H2432       H  0.34777286  0.87459898  0.82223338     0.14700
H2433       H  0.33136110  0.82592873  0.89009847     0.14500
Zn2434     Zn  0.11084245  0.92128463  0.84581245     1.49700
Zn2435     Zn  0.14696522  0.88719004  0.87814878     1.49400
Zn2436     Zn  0.11407018  0.84952686  0.84470883     1.49100
Zn2437     Zn  0.14582256  0.88975247  0.81048180     1.49500
O2438       O  0.12947138  0.88696373  0.84484574    -1.84300
O2439       O  0.11519306  0.94578927  0.88093003    -0.74900
O2440       O  0.14306361  0.84966775  0.90232326    -0.74700
O2441       O  0.08430598  0.85770445  0.84361775    -0.74300
O2442       O  0.14074576  0.92343624  0.90246305    -0.74900
O2443       O  0.08197695  0.90750161  0.84453846    -0.74500
O2444       O  0.12030724  0.82382482  0.87890505    -0.75100
O2445       O  0.14132834  0.85379418  0.78568328    -0.74500
O2446       O  0.17630173  0.88853694  0.86650878    -0.75300
O2447       O  0.11996924  0.82544835  0.80995347    -0.74700
O2448       O  0.17540694  0.89031170  0.81974177    -0.75100
O2449       O  0.13880082  0.92688175  0.78756777    -0.75000
O2450       O  0.11478042  0.94903332  0.81238424    -0.74800
C2451       C  0.12759714  0.94433511  0.90122712     0.77000
C2452       C  0.13202477  0.82653995  0.89989622     0.77500
C2453       C  0.07382453  0.88170796  0.84346550     0.76400
C2454       C  0.13071393  0.83024037  0.78821581     0.76800
C2455       C  0.18522100  0.88922916  0.84268950     0.77900
C2456       C  0.12613512  0.94820312  0.79078176     0.77000
C2457       C  0.08745971  0.63145054  0.56783744     0.86300
C2458       C  0.09461951  0.60615664  0.54822044    -0.53900
C2459       C  0.11432996  0.60767226  0.54090303     0.09300
C2460       C  0.12521738  0.63515602  0.55272781     0.20200
C2461       C  0.10222444  0.63108202  0.59262294    -0.54600
C2462       C  0.12205920  0.63324961  0.58495479     0.09400
C2463       C  0.09279021  0.66008701  0.55090565    -0.54200
C2464       C  0.11250954  0.66227005  0.54336747     0.09900
H2465       H  0.08484027  0.58882825  0.54007791     0.14400
H2466       H  0.14100918  0.63672602  0.54559468     0.00200
H2467       H  0.09710352  0.62911517  0.61423026     0.14700
H2468       H  0.08192702  0.67642558  0.54345772     0.14500
C2469       C  0.17356543  0.63531419  0.62269954     0.86300
C2470       C  0.16619993  0.61282607  0.64525501    -0.53900
C2471       C  0.14677244  0.61628281  0.65302138     0.09300
C2472       C  0.13577179  0.64151113  0.63732523     0.20200
C2473       C  0.15866141  0.63100488  0.59838103    -0.54600
C2474       C  0.13884161  0.63464513  0.60571960     0.09400
C2475       C  0.16818799  0.66621202  0.63530944    -0.54200
C2476       C  0.14847155  0.66951945  0.64292228     0.09900
H2477       H  0.17492837  0.59507930  0.65518978     0.14400
H2478       H  0.11997185  0.64426412  0.64420685     0.00200
H2479       H  0.16366749  0.62531757  0.57730751     0.14700
H2480       H  0.17938227  0.68319656  0.63967380     0.14500
C2481       C  0.11508829  0.77193536  0.73447321    -0.11500
C2482       C  0.13385110  0.76246343  0.72423116     0.15000
C2483       C  0.15142893  0.77578973  0.73488409     0.01900
C2484       C  0.14987186  0.79861856  0.75492272    -0.15900
C2485       C  0.13116139  0.80772355  0.76554483    -0.10700
C2486       C  0.11354337  0.79431990  0.75502734     0.08600
C2487       C  0.13476322  0.73926212  0.70195507     0.09700
S2488       S  0.17629750  0.76391885  0.72454595    -0.25000
H2489       H  0.16344778  0.80856784  0.76310899     0.19900
S2490       S  0.08868634  0.80546892  0.76614997    -0.30700
H2491       H  0.10155132  0.76202261  0.72615164     0.10200
C2492       C  0.12876406  0.70944046  0.70720847     0.03400
C2493       C  0.13180024  0.68764443  0.68638958    -0.13000
C2494       C  0.14130427  0.69475497  0.66077860    -0.08700
C2495       C  0.14582733  0.72507159  0.65473972     0.06900
C2496       C  0.14260592  0.74694349  0.67541808    -0.13800
S2497       S  0.11891540  0.69843594  0.74121495    -0.30700
H2498       H  0.12796094  0.66454214  0.69089293     0.11100
S2499       S  0.15550149  0.73726566  0.62109292    -0.27800
H2500       H  0.14664346  0.77005490  0.67104521     0.08400
H2501       H  0.09325463  0.83602191  0.76984619     0.26800
H2502       H  0.11503398  0.66826537  0.73448484     0.21600
H2503       H  0.14717252  0.71366386  0.60544298     0.26900
H2504       H  0.17147133  0.73346221  0.72085946     0.15700
C2505       C  0.11132960  0.51296634  0.74212241    -0.11500
C2506       C  0.12923287  0.52015419  0.72820591     0.15000
C2507       C  0.14242987  0.00001787  0.73148871     0.01900
C2508       C  0.14169364  0.97654665  0.75110633    -0.15900
C2509       C  0.12513886  0.97271465  0.76920962    -0.10700
C2510       C  0.10862659  0.99287756  0.76649449     0.08600
C2511       C  0.13002418  0.54747464  0.71041149     0.09700
S2512       S  0.16427382  0.00205877  0.70897030    -0.25000
H2513       H  0.15438931  0.96130544  0.75235437     0.19900
S2514       S  0.08547239  0.98873910  0.78578264    -0.30700
H2515       H  0.09800166  0.52639470  0.73827919     0.10200
C2516       C  0.12164286  0.54846905  0.68321123     0.03400
C2517       C  0.12550802  0.57329918  0.66571551    -0.13000
C2518       C  0.13790231  0.59667071  0.67478753    -0.08700
C2519       C  0.14515455  0.59648791  0.70278930     0.06900
C2520       C  0.14089733  0.57205930  0.72027796    -0.13800
S2521       S  0.10772543  0.51694699  0.66984510    -0.30700
H2522       H  0.12027133  0.57336987  0.64414264     0.11100
S2523       S  0.16092910  0.62534987  0.71752357    -0.27800
H2524       H  0.14708175  0.57138808  0.74135561     0.08400
H2525       H  0.08437104  0.95752555  0.78137151     0.26800
H2526       H  0.10296010  0.52977586  0.64357251     0.21600
H2527       H  0.16222446  0.64458280  0.69428764     0.26900
H2528       H  0.16200907  0.52085856  0.69047969     0.15700
C2529       C  0.14683156  0.77460141  0.96140407    -0.11500
C2530       C  0.12976107  0.75647099  0.96354683     0.15000
C2531       C  0.11384991  0.76103506  0.94446819     0.01900
C2532       C  0.11525023  0.78366515  0.92402777    -0.15900
C2533       C  0.13209533  0.80249929  0.92203102    -0.10700
C2534       C  0.14819435  0.79745612  0.94099687     0.08600
C2535       C  0.12878596  0.73294468  0.98572969     0.09700
S2536       S  0.09150453  0.73828384  0.94440132    -0.25000
H2537       H  0.10277673  0.78680897  0.90974397     0.19900
S2538       S  0.17128210  0.81811333  0.93933908    -0.30700
H2539       H  0.15921013  0.77087239  0.97573631     0.10200
C2540       C  0.13465264  0.70302717  0.98038189     0.03400
C2541       C  0.13079934  0.68014926  0.50064639    -0.13000
C2542       C  0.12006414  0.68721147  0.52530071    -0.08700
C2543       C  0.11493358  0.71758989  0.53057338     0.06900
C2544       C  0.11864269  0.73941552  0.50992493    -0.13800
S2545       S  0.14634424  0.69316911  0.94729084    -0.30700
H2546       H  0.13539252  0.65718935  0.49695305     0.11100
S2547       S  0.10380942  0.72998967  0.56327260    -0.27800
H2548       H  0.11631066  0.76341592  0.01636825     0.08400
H2549       H  0.16215992  0.84481936  0.94891416     0.26800
H2550       H  0.14649546  0.66187191  0.95163429     0.21600
H2551       H  0.11241742  0.70723227  0.58002314     0.26900
H2552       H  0.09108919  0.73135130  0.97323619     0.15700
C2553       C  0.11411696  0.50886261  0.94714406    -0.11500
C2554       C  0.13228481  0.51723604  0.95945992     0.15000
C2555       C  0.14605808  0.99662401  0.95838175     0.01900
C2556       C  0.14502762  0.97368715  0.93831322    -0.15900
C2557       C  0.12721019  0.96779913  0.92353093    -0.10700
C2558       C  0.10977722  0.98484535  0.93009177     0.08600
C2559       C  0.13162524  0.54205652  0.98023333     0.09700
S2560       S  0.17071571  0.01940940  0.46113593    -0.25000
H2561       H  0.15850064  0.96086796  0.93365926     0.19900
S2562       S  0.08581916  0.97736110  0.91389815    -0.30700
H2563       H  0.10057900  0.52095524  0.95294488     0.10200
C2564       C  0.12646291  0.57154829  0.97187685     0.03400
C2565       C  0.12277660  0.59237368  0.49250739    -0.13000
C2566       C  0.12334662  0.58574525  0.52133848    -0.08700
C2567       C  0.12903218  0.55665654  0.53033912     0.06900
C2568       C  0.13299399  0.53440658  0.51026721    -0.13800
S2569       S  0.12511896  0.58146560  0.93500158    -0.30700
H2570       H  0.11775139  0.61437410  0.48571295     0.11100
S2571       S  0.12984866  0.54601883  0.56699160    -0.27800
H2572       H  0.13635063  0.51169124  0.51715912     0.08400
H2573       H  0.07494586  0.00087331  0.92664014     0.26800
H2574       H  0.11847648  0.61125104  0.93878777     0.21600
H2575       H  0.13551884  0.57438057  0.57690865     0.26900
H2576       H  0.16939338  0.54160905  0.46963602     0.15700
C2577       C  0.28514737  0.90381483  0.83864601    -0.11500
C2578       C  0.27183172  0.88069994  0.84565286     0.15000
C2579       C  0.27960468  0.85308897  0.85538507     0.01900
C2580       C  0.30021099  0.84985231  0.85976148    -0.15900
C2581       C  0.31360964  0.87402071  0.85590548    -0.10700
C2582       C  0.30590634  0.90070944  0.84318720     0.08600
C2583       C  0.24989492  0.88582839  0.84308082     0.09700
S2584       S  0.26395966  0.82117988  0.86347021    -0.25000
H2585       H  0.30526995  0.82811064  0.86675913     0.19900
S2586       S  0.32221793  0.93126283  0.83285948    -0.30700
H2587       H  0.27913255  0.92452457  0.83003021     0.10200
C2588       C  0.23929871  0.90315936  0.86309220     0.03400
C2589       C  0.21824300  0.90417631  0.86229259    -0.13000
C2590       C  0.20748585  0.88832341  0.84179024    -0.08700
C2591       C  0.21826739  0.87144042  0.82141571     0.06900
C2592       C  0.23926562  0.87073044  0.82208607    -0.13800
S2593       S  0.25255882  0.92286966  0.89044909    -0.30700
H2594       H  0.21008478  0.91716731  0.87786162     0.11100
S2595       S  0.20622045  0.84839960  0.79538086    -0.27800
H2596       H  0.24738672  0.85710210  0.80692283     0.08400
H2597       H  0.30710188  0.95183486  0.82516718     0.26800
H2598       H  0.23562384  0.93611863  0.90321465     0.21600
H2599       H  0.19141862  0.83737269  0.81386811     0.26900
H2600       H  0.24763573  0.83775798  0.87417938     0.15700
C2601       C  0.22540519  0.65187977  0.58829184    -0.11500
C2602       C  0.23799375  0.63146129  0.60234277     0.15000
C2603       C  0.22943606  0.61077910  0.62128045     0.01900
C2604       C  0.20896343  0.61192886  0.62693216    -0.15900
C2605       C  0.19595074  0.63296357  0.61399601    -0.10700
C2606       C  0.20456623  0.65276989  0.59364081     0.08600
C2607       C  0.26016035  0.63349097  0.59918692     0.09700
S2608       S  0.24407555  0.58251294  0.63942910    -0.25000
H2609       H  0.20376631  0.59558336  0.64223719     0.19900
S2610       S  0.18936435  0.67986558  0.57469112    -0.30700
H2611       H  0.23207578  0.66765862  0.57360192     0.10200
C2612       C  0.27023605  0.62486316  0.57433971     0.03400
C2613       C  0.29134875  0.62387861  0.57389912    -0.13000
C2614       C  0.30272646  0.63145258  0.59782346    -0.08700
C2615       C  0.29236007  0.64163982  0.62220438     0.06900
C2616       C  0.27138771  0.64218870  0.62262908    -0.13800
S2617       S  0.25622277  0.61351265  0.54374349    -0.30700
H2618       H  0.29898634  0.61631503  0.55503466     0.11100
S2619       S  0.30470797  0.65495347  0.65342274    -0.27800
H2620       H  0.26364901  0.64925204  0.64164644     0.08400
H2621       H  0.20498119  0.69340749  0.55932280     0.26800
H2622       H  0.27282391  0.60878993  0.52588252     0.21600
H2623       H  0.31848968  0.67283173  0.63843274     0.26900
H2624       H  0.25805245  0.57798148  0.61755737     0.15700
C2625       C  0.36405616  0.72709141  0.47401043    -0.11500
C2626       C  0.37975110  0.74205418  0.96362213     0.15000
C2627       C  0.39792488  0.73437060  0.97704867     0.01900
C2628       C  0.39902970  0.71276641  0.50319580    -0.15900
C2629       C  0.38081152  0.69962447  0.51159239    -0.10700
C2630       C  0.36313699  0.70704624  0.49668906     0.08600
C2631       C  0.37807206  0.76777762  0.94390700     0.09700
S2632       S  0.42169360  0.75019395  0.96668583    -0.25000
H2633       H  0.41272259  0.70704739  0.51424278     0.19900
S2634       S  0.33865179  0.69364971  0.50678346    -0.30700
H2635       H  0.35027359  0.73345727  0.46347691     0.10200
C2636       C  0.37063604  0.76432925  0.91640576     0.03400
C2637       C  0.36597463  0.78993798  0.90042877    -0.13000
C2638       C  0.36841596  0.81897922  0.91143633    -0.08700
C2639       C  0.37682214  0.82236041  0.93849760     0.06900
C2640       C  0.38156519  0.79668817  0.95436729    -0.13800
S2641       S  0.36678420  0.72736437  0.90184298    -0.30700
H2642       H  0.35984959  0.78740756  0.87949251     0.11100
S2643       S  0.37993274  0.85887007  0.95425124    -0.27800
H2644       H  0.38703492  0.79903827  0.97567839     0.08400
H2645       H  0.34190801  0.69640393  0.53592050     0.26800
H2646       H  0.35857142  0.73690124  0.87605999     0.21600
H2647       H  0.38879185  0.84906956  0.97950877     0.26900
H2648       H  0.41640913  0.75598561  0.93854008     0.15700
C2649       C  0.38384954  0.98395334  0.50120948    -0.11500
C2650       C  0.37655466  0.49182715  0.97306614     0.15000
C2651       C  0.36705083  0.51999029  0.96947857     0.01900
C2652       C  0.36717739  0.54047524  0.49578857    -0.15900
C2653       C  0.37789118  0.53559222  0.52091550    -0.10700
C2654       C  0.38737010  0.50720489  0.52489634     0.08600
C2655       C  0.37488093  0.96918521  0.95583144     0.09700
S2656       S  0.35183077  0.52904108  0.93924373    -0.25000
H2657       H  0.35967486  0.56179776  0.49219861     0.19900
S2658       S  0.39963836  0.49628707  0.55710773    -0.30700
H2659       H  0.38686138  0.96079491  0.50705432     0.10200
C2660       C  0.38799615  0.96117258  0.93365977     0.03400
C2661       C  0.38274959  0.93762886  0.91533878    -0.13000
C2662       C  0.36477089  0.92171807  0.91909670    -0.08700
C2663       C  0.35242483  0.92865408  0.94264742     0.06900
C2664       C  0.35740207  0.95257416  0.96020639    -0.13800
S2665       S  0.41098416  0.98161172  0.92822486    -0.30700
H2666       H  0.39234419  0.93216425  0.89759991     0.11100
S2667       S  0.33052045  0.90727675  0.95243512    -0.27800
H2668       H  0.34762213  0.95814801  0.97775391     0.08400
H2669       H  0.38405426  0.50706718  0.57451142     0.26800
H2670       H  0.41795643  0.96458325  0.90522672     0.21600
H2671       H  0.33763770  0.87958821  0.94219691     0.26900
H2672       H  0.36139457  0.50963138  0.92013444     0.15700
C2673       C  0.39934663  0.99788663  0.69362903    -0.11500
C2674       C  0.38174872  0.99162100  0.70880188     0.15000
C2675       C  0.36502478  0.50485857  0.70116706     0.01900
C2676       C  0.36528462  0.52929895  0.68247491    -0.15900
C2677       C  0.38341203  0.54070903  0.67180584    -0.10700
C2678       C  0.40171471  0.52801249  0.68119778     0.08600
C2679       C  0.38235650  0.96727027  0.73032140     0.09700
S2680       S  0.34091806  0.49146312  0.71301421    -0.25000
H2681       H  0.35116681  0.53888130  0.67550856     0.19900
S2682       S  0.42589992  0.54282179  0.67138819    -0.30700
H2683       H  0.41277964  0.98476872  0.69770431     0.10200
C2684       C  0.38571407  0.93700544  0.72266145     0.03400
C2685       C  0.38894578  0.91529202  0.74370853    -0.13000
C2686       C  0.38872184  0.92321620  0.77222582    -0.08700
C2687       C  0.38377790  0.95296137  0.77994313     0.06900
C2688       C  0.38089828  0.97475623  0.75896881    -0.13800
S2689       S  0.38639044  0.92614998  0.68605751    -0.30700
H2690       H  0.39280380  0.89243517  0.73794795     0.11100
S2691       S  0.38169529  0.96444913  0.81623185    -0.27800
H2692       H  0.37804318  0.99785541  0.76500300     0.08400
H2693       H  0.41963242  0.57305788  0.67069103     0.26800
H2694       H  0.38837574  0.89503583  0.69071943     0.21600
H2695       H  0.37540121  0.93635479  0.82647778     0.26900
H2696       H  0.34354833  0.97186524  0.72524261     0.15700
C2697       C  0.38206619  0.76029983  0.68498685    -0.11500
C2698       C  0.38749661  0.75260949  0.71266853     0.15000
C2699       C  0.38937233  0.72178241  0.71977503     0.01900
C2700       C  0.38625613  0.69971014  0.69913120    -0.15900
C2701       C  0.38181241  0.70753684  0.67113215    -0.10700
C2702       C  0.37916557  0.73826949  0.66432049     0.08600
C2703       C  0.39133685  0.77722058  0.73336081     0.09700
S2704       S  0.39655867  0.70911411  0.75442808    -0.25000
H2705       H  0.38825346  0.67624441  0.70468556     0.19900
S2706       S  0.37155012  0.75077960  0.62980900    -0.30700
H2707       H  0.38012287  0.78377150  0.67940593     0.10200
C2708       C  0.40753703  0.79720135  0.72972941     0.03400
C2709       C  0.41079355  0.81999717  0.74959716    -0.13000
C2710       C  0.39849671  0.82316247  0.77355475    -0.08700
C2711       C  0.38252064  0.80277050  0.77747773     0.06900
C2712       C  0.37890940  0.78047085  0.75719571    -0.13800
S2713       S  0.42459351  0.79310530  0.70028355    -0.30700
H2714       H  0.42303226  0.83555541  0.74646054     0.11100
S2715       S  0.36695974  0.80292835  0.80860906    -0.27800
H2716       H  0.36658637  0.76503801  0.76035175     0.08400
H2717       H  0.35964310  0.72559125  0.62393722     0.26800
H2718       H  0.43842359  0.81501718  0.70874023     0.21600
H2719       H  0.38246285  0.81066452  0.82715904     0.26900
H2720       H  0.40917551  0.73346215  0.76039090     0.15700
C2721       C  0.97500997  0.89100590  0.82403685    -0.11500
C2722       C  0.98781180  0.86907561  0.83541931     0.15000
C2723       C  0.97942318  0.84387137  0.84890322     0.01900
C2724       C  0.95865025  0.84170609  0.85174839    -0.15900
C2725       C  0.94562514  0.86529163  0.84349962    -0.10700
C2726       C  0.95405981  0.88922884  0.82749043     0.08600
C2727       C  0.00979972  0.87386264  0.83486124     0.09700
S2728       S  0.99444462  0.81438416  0.86454691    -0.25000
H2729       H  0.95319646  0.82143125  0.86139517     0.19900
S2730       S  0.93845674  0.91810402  0.81181247    -0.30700
H2731       H  0.98155868  0.90997515  0.81309513     0.10200
C2732       C  0.02286821  0.85542947  0.81903278     0.03400
C2733       C  0.04368497  0.85817512  0.82255818    -0.13000
C2734       C  0.05173328  0.87941706  0.84119744    -0.08700
C2735       C  0.03851647  0.89837306  0.85641577     0.06900
C2736       C  0.01779452  0.89557726  0.85286516    -0.13800
S2737       S  0.01302536  0.82866676  0.79421424    -0.30700
H2738       H  0.05376275  0.84394579  0.81053766     0.11100
S2739       S  0.04698530  0.92523381  0.88201045    -0.27800
H2740       H  0.00774991  0.90955477  0.86524936     0.08400
H2741       H  0.95385268  0.93384057  0.79793025     0.26800
H2742       H  0.03162759  0.81895223  0.78338787     0.21600
H2743       H  0.06257675  0.90700210  0.89249759     0.26900
H2744       H  0.00953089  0.83333353  0.87478111     0.15700
C2745       C  0.89471322  0.50097309  0.68850900    -0.11500
C2746       C  0.87618512  0.48773010  0.69475910     0.15000
C2747       C  0.85893914  0.49732030  0.68002813     0.01900
C2748       C  0.86046851  0.52044091  0.66008711    -0.15900
C2749       C  0.87896470  0.53400708  0.65391092    -0.10700
C2750       C  0.89636212  0.52352057  0.66794206     0.08600
C2751       C  0.87473850  0.96459505  0.71800392     0.09700
S2752       S  0.83454335  0.48102460  0.68579682    -0.25000
H2753       H  0.84703003  0.52798571  0.64935968     0.19900
S2754       S  0.92118600  0.53676282  0.65963683    -0.30700
H2755       H  0.90726139  0.99545353  0.70234504     0.10200
C2756       C  0.88275183  0.93542069  0.71522471     0.03400
C2757       C  0.87931221  0.91417276  0.73658930    -0.13000
C2758       C  0.86763560  0.92131047  0.76037532    -0.08700
C2759       C  0.86163885  0.95159737  0.76437507     0.06900
C2760       C  0.86482985  0.97266426  0.74292751    -0.13800
S2761       S  0.89616626  0.92465365  0.68366498    -0.30700
H2762       H  0.88505991  0.89173970  0.73408580     0.11100
S2763       S  0.85083005  0.96522113  0.79677937    -0.27800
H2764       H  0.85947596  0.99552048  0.74559802     0.08400
H2765       H  0.91785084  0.53909283  0.63047200     0.26800
H2766       H  0.90100651  0.89523130  0.69227006     0.21600
H2767       H  0.86060383  0.94396977  0.81400369     0.26900
H2768       H  0.84146890  0.45189354  0.69211612     0.15700
C2769       C  0.86156798  0.74132015  0.68221112    -0.11500
C2770       C  0.87915433  0.74872538  0.69655175     0.15000
C2771       C  0.89702568  0.73278908  0.69064017     0.01900
C2772       C  0.89683052  0.70954136  0.67074416    -0.15900
C2773       C  0.87923042  0.70227074  0.65608339    -0.10700
C2774       C  0.86132883  0.71827031  0.66230509     0.08600
C2775       C  0.87788180  0.77275313  0.71795067     0.09700
S2776       S  0.92048477  0.74115567  0.70756411    -0.25000
H2777       H  0.91065381  0.69758008  0.66614253     0.19900
S2778       S  0.83743031  0.70964007  0.64668668    -0.30700
H2779       H  0.84778092  0.75334101  0.68696093     0.10200
C2780       C  0.87835068  0.80323363  0.71000782     0.03400
C2781       C  0.87364524  0.82538794  0.72994535    -0.13000
C2782       C  0.86899569  0.81774319  0.75788664    -0.08700
C2783       C  0.86962694  0.78718390  0.76614702     0.06900
C2784       C  0.87383441  0.76501629  0.74604182    -0.13800
S2785       S  0.88408796  0.81380255  0.67412828    -0.30700
H2786       H  0.87226792  0.84840018  0.72322058     0.11100
S2787       S  0.86439134  0.77503373  0.80170024    -0.27800
H2788       H  0.87342332  0.74154759  0.75214097     0.08400
H2789       H  0.84025417  0.67827920  0.64742690     0.26800
H2790       H  0.88476526  0.84498052  0.67877099     0.21600
H2791       H  0.87145760  0.80117259  0.81481567     0.26900
H2792       H  0.91663628  0.77185440  0.71197449     0.15700
C2793       C  0.86499265  0.50400761  0.96476221    -0.11500
C2794       C  0.88370751  0.49237182  0.95652746     0.15000
C2795       C  0.90129477  0.50435007  0.96849145     0.01900
C2796       C  0.89819546  0.52903519  0.49011189    -0.15900
C2797       C  0.88112240  0.53876878  0.99699560    -0.10700
C2798       C  0.86349985  0.52698841  0.98479849     0.07000
C2799       C  0.88593863  0.96815814  0.93784032     0.09700
S2800       S  0.92721383  0.99492027  0.95940176    -0.25000
H2801       H  0.91187409  0.53890074  0.49802996     0.19900
S2802       S  0.83874467  0.54096377  0.99298712    -0.30700
H2803       H  0.85147114  0.49533053  0.95526899     0.10200
C2804       C  0.88102612  0.93804741  0.94401814     0.03400
C2805       C  0.88431211  0.91582612  0.92356568    -0.13000
C2806       C  0.89249908  0.92307427  0.89713113    -0.08700
C2807       C  0.89593829  0.95354769  0.89030614     0.06900
C2808       C  0.89282542  0.97566512  0.91077305    -0.13800
S2809       S  0.87197377  0.92750490  0.97854841    -0.30700
H2810       H  0.88151054  0.89251880  0.92872014     0.11100
S2811       S  0.90408357  0.96566453  0.85585417    -0.27800
H2812       H  0.89606466  0.99890887  0.90572088     0.08400
H2813       H  0.84463207  0.57102834  0.99646884     0.26800
H2814       H  0.86785843  0.89731480  0.97216887     0.21600
H2815       H  0.89541563  0.94168177  0.84110123     0.26900
H2816       H  0.92288430  0.96441365  0.95500555     0.15700
C2817       C  0.89612531  0.79952412  0.95184092    -0.11500
C2818       C  0.88338665  0.77601949  0.94411791     0.15000
C2819       C  0.87294711  0.77779824  0.91828092     0.01900
C2820       C  0.87648422  0.80205258  0.90003131    -0.15900
C2821       C  0.89054059  0.82410475  0.90682187    -0.10700
C2822       C  0.89993201  0.82343059  0.93339265     0.08600
C2823       C  0.88219120  0.74952856  0.96302661     0.09700
S2824       S  0.85587434  0.74916901  0.90661950    -0.25000
H2825       H  0.86933023  0.80257213  0.87957451     0.19900
S2826       S  0.91739600  0.85241352  0.94339716    -0.30700
H2827       H  0.90371929  0.79837860  0.97192991     0.10200
C2828       C  0.89874617  0.73000698  0.96642582     0.03400
C2829       C  0.89755379  0.70614394  0.98573761    -0.13000
C2830       C  0.87999446  0.70093308  0.00151430    -0.08700
C2831       C  0.86302225  0.71966686  0.99666524     0.06900
C2832       C  0.86449104  0.74404809  0.97806778    -0.13800
S2833       S  0.92138827  0.73535170  0.94596478    -0.30700
H2834       H  0.91362425  0.69941762  0.49738623     0.11100
S2835       S  0.83877237  0.71314729  0.01238545    -0.27800
H2836       H  0.85163304  0.75868695  0.97499172     0.08400
H2837       H  0.92193214  0.84090107  0.97025874     0.26800
H2838       H  0.93769779  0.72764698  0.47687226     0.21600
H2839       H  0.83959699  0.68179466  0.00864708     0.26900
H2840       H  0.86554196  0.72482745  0.91984460     0.15700
C2841       C  0.99066714  0.61103699  0.60616382    -0.11500
C2842       C  0.00107061  0.61873059  0.58152865     0.15000
C2843       C  0.99020824  0.62374913  0.55649368     0.01900
C2844       C  0.96923694  0.62285605  0.55702141    -0.15900
C2845       C  0.95853219  0.61626094  0.58189962    -0.10700
C2846       C  0.96960047  0.60946816  0.60670945     0.08600
C2847       C  0.02314999  0.62277145  0.58267716     0.09700
S2848       S  0.00224796  0.63170121  0.52319229    -0.25000
H2849       H  0.96124172  0.62761466  0.53768754     0.19900
S2850       S  0.95748033  0.59811323  0.63918079    -0.30700
H2851       H  0.99917005  0.60670700  0.62513420     0.10200
C2852       C  0.03174554  0.65140697  0.57997108     0.03400
C2853       C  0.05258126  0.65401757  0.57696319    -0.13000
C2854       C  0.06528678  0.62850956  0.57681387    -0.08700
C2855       C  0.05671270  0.60047342  0.58470741     0.06900
C2856       C  0.03571802  0.59776435  0.58650494    -0.13800
S2857       S  0.01614167  0.68474063  0.58053599    -0.30700
H2858       H  0.05877239  0.67624016  0.57491363     0.11100
S2859       S  0.07216336  0.56817857  0.59333568    -0.27800
H2860       H  0.02899736  0.57608290  0.59054550     0.08400
H2861       H  0.97485202  0.59525927  0.65568705     0.26800
H2862       H  0.03179539  0.70563325  0.58285059     0.21600
H2863       H  0.05647334  0.54779874  0.59820244     0.26900
H2864       H  0.01983583  0.61510334  0.52852212     0.15700
C2865       C  0.72522383  0.60849636  0.59649630    -0.11500
C2866       C  0.73841727  0.63053488  0.58655065     0.15000
C2867       C  0.73062043  0.65624555  0.57312752     0.01900
C2868       C  0.71000317  0.65908762  0.56925985    -0.15900
C2869       C  0.69660972  0.63574971  0.57641016    -0.10700
C2870       C  0.70442892  0.61090499  0.59193757     0.08600
C2871       C  0.76031610  0.62562072  0.58858855     0.09700
S2872       S  0.74803305  0.68103422  0.05652322    -0.25000
H2873       H  0.70500097  0.67977186  0.55982472     0.19900
S2874       S  0.68824558  0.58178624  0.60575116    -0.30700
H2875       H  0.73135737  0.58907122  0.60729589     0.10200
C2876       C  0.77245569  0.64354478  0.60590772     0.03400
C2877       C  0.79339541  0.64197326  0.60299082    -0.13000
C2878       C  0.80241393  0.62236656  0.58348045    -0.08700
C2879       C  0.79012415  0.60357729  0.56701439     0.06900
C2880       C  0.76928694  0.60521685  0.56994425    -0.13800
S2881       S  0.76122396  0.66838822  0.63159181    -0.30700
H2882       H  0.80280552  0.65594062  0.61601002     0.11100
S2883       S  0.79992245  0.57865406  0.54044337    -0.27800
H2884       H  0.75993143  0.59166694  0.55642430     0.08400
H2885       H  0.70326885  0.56410466  0.61841688     0.26800
H2886       H  0.77926869  0.67941263  0.64266452     0.21600
H2887       H  0.81503107  0.59835360  0.53120983     0.26900
H2888       H  0.76160470  0.66664487  0.54908516     0.15700
C2889       C  0.52869665  0.64602290  0.62169640    -0.11500
C2890       C  0.52247242  0.63546149  0.59554578     0.15000
C2891       C  0.53690230  0.63030293  0.57431996     0.01900
C2892       C  0.55730356  0.63474184  0.58010754    -0.15900
C2893       C  0.56393746  0.64392223  0.60699726    -0.10700
C2894       C  0.54899381  0.65001987  0.62789678     0.08600
C2895       C  0.50071551  0.63018729  0.59169531     0.09700
S2896       S  0.53040662  0.61683184  0.53976196    -0.25000
H2897       H  0.56777654  0.62915988  0.56362703     0.19900
S2898       S  0.55502876  0.66179662  0.66329422    -0.30700
H2899       H  0.51741898  0.65032925  0.63767440     0.10200
C2900       C  0.49060537  0.60790356  0.60742838     0.03400
C2901       C  0.46964236  0.60600051  0.60597014    -0.13000
C2902       C  0.45852041  0.62603116  0.58921063    -0.08700
C2903       C  0.46880864  0.64727829  0.57233460     0.06900
C2904       C  0.48971546  0.64938208  0.57404901    -0.13800
S2905       S  0.50439908  0.58194735  0.62951136    -0.30700
H2906       H  0.46182139  0.58943872  0.61857738     0.11100
S2907       S  0.45621873  0.67187318  0.54776940    -0.27800
H2908       H  0.49746362  0.66634098  0.56178946     0.08400
H2909       H  0.53540042  0.66732378  0.67300010     0.26800
H2910       H  0.48764805  0.56835313  0.64225751     0.21600
H2911       H  0.44134885  0.65109012  0.54032557     0.26900
H2912       H  0.51341321  0.60049045  0.54816497     0.15700
C2913       C  0.73987869  0.89812475  0.81299149    -0.11500
C2914       C  0.75030406  0.88222674  0.83386976     0.15000
C2915       C  0.73972515  0.87142561  0.85764857     0.01900
C2916       C  0.71884450  0.87532279  0.85915028    -0.15900
C2917       C  0.70819988  0.89017457  0.83763297    -0.10700
C2918       C  0.71914275  0.90274695  0.81483946     0.08600
C2919       C  0.77193970  0.87616066  0.82915495     0.09700
S2920       S  0.75163073  0.85112211  0.88605648    -0.25000
H2921       H  0.71078843  0.86581189  0.87690427     0.19900
S2922       S  0.70778717  0.92562600  0.78777443    -0.30700
H2923       H  0.74801404  0.90696186  0.79499455     0.10200
C2924       C  0.77835694  0.85154521  0.81302325     0.03400
C2925       C  0.79880808  0.84804847  0.80646371    -0.13000
C2926       C  0.81336159  0.86887848  0.81570612    -0.08700
C2927       C  0.80664112  0.89292108  0.83321358     0.06900
C2928       C  0.78610175  0.89643848  0.83926243    -0.13800
S2929       S  0.76030452  0.82494893  0.79981141    -0.30700
H2930       H  0.80279491  0.82946559  0.79349622     0.11100
S2931       S  0.82376164  0.92023687  0.84751702    -0.27800
H2932       H  0.78091774  0.91537810  0.85158059     0.08400
H2933       H  0.69446833  0.94041361  0.80624754     0.26800
H2934       H  0.77410015  0.80499770  0.78727035     0.21600
H2935       H  0.81030329  0.93352609  0.86674830     0.26900
H2936       H  0.77124134  0.86140883  0.88170880     0.15700
C2937       C  0.64175264  0.53016459  0.00655065    -0.11500
C2938       C  0.63813386  0.53755792  0.97824923     0.15000
C2939       C  0.63630089  0.56819885  0.97053114     0.01900
C2940       C  0.63887072  0.59054002  0.99094753    -0.15900
C2941       C  0.64369698  0.58305312  0.01882959    -0.10700
C2942       C  0.64450788  0.55249113  0.02684574     0.08600
C2943       C  0.63643095  0.51280732  0.95742763     0.09700
S2944       S  0.63174547  0.58035551  0.93483869    -0.25000
H2945       H  0.63828863  0.61395744  0.98465039     0.19900
S2946       S  0.64765468  0.54002987  0.56361034    -0.30700
H2947       H  0.64268083  0.50674785  0.01279623     0.10200
C2948       C  0.65295663  0.49412891  0.95084103     0.03400
C2949       C  0.64884131  0.97755955  0.92883248    -0.13000
C2950       C  0.63013456  0.96949452  0.91779879    -0.08700
C2951       C  0.61268503  0.98472749  0.92734645     0.06900
C2952       C  0.61442559  0.00799495  0.94698496    -0.13800
S2953       S  0.67716387  0.50054313  0.96664837    -0.30700
H2954       H  0.66223299  0.96618769  0.92134923     0.11100
S2955       S  0.58775416  0.97474653  0.91633559    -0.27800
H2956       H  0.60105305  0.01957658  0.95431090     0.08400
H2957       H  0.64046888  0.56624399  0.57680237     0.26800
H2958       H  0.68713321  0.47585614  0.95441482     0.21600
H2959       H  0.59160476  0.94365795  0.91507681     0.26900
H2960       H  0.64202883  0.55652061  0.92170770     0.15700
C2961       C  0.62639556  0.72839140  0.99713886    -0.11500
C2962       C  0.63610395  0.72683229  0.97080804     0.15000
C2963       C  0.64882458  0.70207518  0.96503236     0.01900
C2964       C  0.65248854  0.68065647  0.98600583    -0.15900
C2965       C  0.64346172  0.68283516  0.01265536    -0.10700
C2966       C  0.62999232  0.70671844  0.01813728     0.08600
C2967       C  0.63444916  0.75258228  0.95085091     0.09700
S2968       S  0.66119218  0.69684616  0.93151421    -0.25000
H2969       H  0.66281724  0.66231565  0.98168628     0.19900
S2970       S  0.61637444  0.71029450  0.55298496    -0.30700
H2971       H  0.61667348  0.74734546  0.00179748     0.10200
C2972       C  0.61637534  0.75990026  0.93707495     0.03400
C2973       C  0.61594682  0.78389201  0.91768040    -0.13000
C2974       C  0.63328158  0.80067630  0.91156095    -0.08700
C2975       C  0.65146944  0.79266408  0.92499844     0.06900
C2976       C  0.65171486  0.76933357  0.94482865    -0.13800
S2977       S  0.59406756  0.73802499  0.94342022    -0.30700
H2978       H  0.60202809  0.78967439  0.90728702     0.11100
S2979       S  0.67519413  0.80979412  0.91647928    -0.27800
H2980       H  0.66571044  0.76348902  0.95505912     0.08400
H2981       H  0.63241102  0.70021626  0.56969250     0.26800
H2982       H  0.58133786  0.75443205  0.92542913     0.21600
H2983       H  0.67159924  0.81123939  0.88732295     0.26900
H2984       H  0.64639368  0.71131065  0.91529519     0.15700
C2985       C  0.60963047  0.56462663  0.70934365    -0.11500
C2986       C  0.62720580  0.54781376  0.70539864     0.15000
C2987       C  0.63958792  0.55422306  0.68184841     0.01900
C2988       C  0.63374112  0.57664539  0.66254007    -0.15900
C2989       C  0.61596156  0.59325889  0.66648663    -0.10700
C2990       C  0.60423193  0.58765589  0.69089053     0.08600
C2991       C  0.63109356  0.52282480  0.72558092     0.09700
S2992       S  0.66237044  0.03514561  0.67594031    -0.25000
H2993       H  0.64303155  0.58096071  0.64419816     0.19900
S2994       S  0.58285476  0.61005196  0.70105069    -0.30700
H2995       H  0.60006763  0.55997326  0.72734901     0.10200
C2996       C  0.63273473  0.52814810  0.75481440     0.03400
C2997       C  0.62960601  0.00406956  0.77319713    -0.13000
C2998       C  0.62927321  0.97426450  0.76369347    -0.08700
C2999       C  0.62952108  0.96872443  0.73434597     0.06900
C3000       C  0.62965132  0.99296124  0.71535771    -0.13800
S3001       S  0.63499930  0.56598085  0.76812179    -0.30700
H3002       H  0.62987496  0.00830723  0.79563604     0.11100
S3003       S  0.62841581  0.93141000  0.71975043    -0.27800
H3004       H  0.62895339  0.98853427  0.69295724     0.08400
H3005       H  0.59100720  0.63726632  0.69135441     0.26800
H3006       H  0.63307875  0.55863953  0.79684246     0.21600
H3007       H  0.61565890  0.91967307  0.74068860     0.26900
H3008       H  0.66587283  0.02853758  0.70447643     0.15700
C3009       C  0.63330795  0.71496741  0.70168578    -0.11500
C3010       C  0.62877832  0.74428401  0.69296323     0.15000
C3011       C  0.62197083  0.74933619  0.66529544     0.01900
C3012       C  0.61809850  0.72476023  0.64787203    -0.15900
C3013       C  0.62111065  0.69503933  0.65725416    -0.10700
C3014       C  0.62963605  0.69024672  0.68421674     0.08600
C3015       C  0.62906840  0.76836265  0.71437228     0.09700
S3016       S  0.61693810  0.78646092  0.65161430    -0.25000
H3017       H  0.61203016  0.72884189  0.62706022     0.19900
S3018       S  0.63437088  0.65308065  0.69803452    -0.30700
H3019       H  0.63870398  0.71144397  0.72292176     0.10200
C3020       C  0.61118845  0.77825464  0.72741482     0.03400
C3021       C  0.61210342  0.79929855  0.74926925    -0.13000
C3022       C  0.63053460  0.81075166  0.75839379    -0.08700
C3023       C  0.64845650  0.80071222  0.74521313     0.06900
C3024       C  0.64749852  0.77973979  0.72334312    -0.13800
S3025       S  0.58722633  0.76338332  0.71680001    -0.30700
H3026       H  0.59838337  0.80697798  0.75927086     0.11100
S3027       S  0.67304518  0.81243514  0.75620526    -0.27800
H3028       H  0.66124868  0.77169194  0.71363712     0.08400
H3029       H  0.64220721  0.66165360  0.72423388     0.26800
H3030       H  0.57532867  0.78069493  0.73521655     0.21600
H3031       H  0.66851610  0.81218554  0.78517844     0.26900
H3032       H  0.63048085  0.80162192  0.66907217     0.15700
C3033       C  0.51967981  0.86657974  0.82972628    -0.11500
C3034       C  0.50959678  0.88552664  0.84868465     0.15000
C3035       C  0.52093567  0.90443614  0.86637293     0.01900
C3036       C  0.54190186  0.90509984  0.86352098    -0.15900
C3037       C  0.55194354  0.88664925  0.84396554    -0.10700
C3038       C  0.54057089  0.86710123  0.82697829     0.08600
C3039       C  0.48735352  0.88693083  0.84687905     0.09700
S3040       S  0.50966628  0.92820706  0.89288728    -0.25000
H3041       H  0.55048068  0.91979617  0.87699506     0.19900
S3042       S  0.55161187  0.84375173  0.80000629    -0.30700
H3043       H  0.51108829  0.85222311  0.81593404     0.10200
C3044       C  0.47760346  0.91185625  0.83473868     0.03400
C3045       C  0.45703433  0.91044359  0.82895006    -0.13000
C3046       C  0.44579947  0.88403211  0.83375159    -0.08700
C3047       C  0.45538968  0.86010943  0.84855655     0.06900
C3048       C  0.47603474  0.86169077  0.85445277    -0.13800
S3049       S  0.49160351  0.94481814  0.82433624    -0.30700
H3050       H  0.45020529  0.93018377  0.82020550     0.11100
S3051       S  0.44174726  0.82699420  0.85957670    -0.27800
H3052       H  0.48360968  0.84284112  0.86427560     0.08400
H3053       H  0.56599278  0.86496308  0.79145699     0.26800
H3054       H  0.47510524  0.96297604  0.81693654     0.21600
H3055       H  0.45782964  0.81193157  0.87261973     0.26900
H3056       H  0.49152718  0.91248318  0.89539708     0.15700
loop_ 
_geom_bond_atom_site_label_1 
_geom_bond_atom_site_label_2 
_geom_bond_distance 
_geom_bond_site_symmetry_2 
_ccdc_geom_bond_type 
Zn1           O5   1.969       .  S
Zn1           O6   2.041       .  S
Zn1          O10   2.040       .  S
Zn1          O17   2.025       .  S
Zn2           O5   1.959       .  S
Zn2           O7   2.009       .  S
Zn2           O9   2.008       .  S
Zn2          O13   2.017       .  S
Zn3           O5   1.965       .  S
Zn3           O8   2.012       .  S
Zn3          O11   2.018       .  S
Zn3          O14   2.019       .  S
Zn4           O5   1.960       .  S
Zn4          O12   2.028       .  S
Zn4          O15   2.017       .  S
Zn4          O16   2.014       .  S
O6           C18   1.277       .  A
O7           C19   1.274       .  A
O8           C20   1.273       .  A
O9           C18   1.272       .  A
O10          C20   1.277       .  A
O11          C19   1.273       .  A
O12          C21   1.274       .  A
O13          C22   1.273       .  A
O14          C21   1.274       .  A
O15          C22   1.273       .  A
O16          C23   1.274       .  A
O17          C23   1.274       .  A
C18         C745   1.482       .  S
C19         C730   1.482       .  S
C20         C706   1.478       .  S
C21         C625   1.482       .  S
C22         C682   1.484       .  S
C23         C658   1.483       .  S
C24          C25   1.536       .  S
C24          C30   1.532       .  S
C24          C28   1.543       .  S
C24         C601   1.543       .  S
C25          H32   1.086       .  S
C25          C26   1.368       .  D
C26          C27   1.541       .  S
C26         C721   1.492       .  S
C27          C31   1.542       .  S
C27          C29   1.552       .  S
C27          H33   1.104       .  S
C28          H34   1.076       .  S
C28          C29   1.371       .  D
C29          C41   1.502       .  S
C30          H35   1.087       .  S
C30          C31   1.362       .  D
C31         C697   1.491       .  S
C36          C37   1.546       .  S
C36          C42   1.537       .  S
C36          C40   1.537       .  S
C36         C577   1.544       .  S
C37          H44   1.083       .  S
C37          C38   1.360       .  D
C38          C39   1.535       .  S
C38        C1437   1.483       .  S
C39          C43   1.533       .  S
C39          C41   1.554       .  S
C39          H45   1.106       .  S
C40          H46   1.082       .  S
C40          C41   1.373       .  D
C42          H47   1.087       .  S
C42          C43   1.363       .  D
C43        C1413   1.478       .  S
Zn48         O52   1.965       .  S
Zn48         O53   2.022       .  S
Zn48         O57   2.024       .  S
Zn48         O64   2.014       .  S
Zn49         O52   1.967       .  S
Zn49         O54   2.037       .  S
Zn49         O56   2.029       .  S
Zn49         O60   2.044       .  S
Zn50         O52   1.956       .  S
Zn50         O55   2.020       .  S
Zn50         O58   2.017       .  S
Zn50         O61   2.005       .  S
Zn51         O52   1.966       .  S
Zn51         O59   2.038       .  S
Zn51         O62   2.018       .  S
Zn51         O63   2.016       .  S
O53          C65   1.274       .  A
O54          C66   1.277       .  A
O55          C67   1.273       .  A
O56          C65   1.275       .  A
O57          C67   1.273       .  A
O58          C66   1.273       .  A
O59          C68   1.275       .  A
O60          C69   1.278       .  A
O61          C68   1.272       .  A
O62          C69   1.272       .  A
O63          C70   1.273       .  A
O64          C70   1.274       .  A
C65        C1269   1.484       .  S
C66        C1302   1.493       .  S
C67         C586   1.481       .  S
C68         C481   1.484       .  S
C69         C553   1.497       .  S
C70         C457   1.481       .  S
C71          C72   1.546       .  S
C71          C77   1.538       .  S
C71          C75   1.544       .  S
C71         C433   1.548       .  S
C72          H79   1.075       .  S
C72          C73   1.360       .  D
C73          C74   1.529       .  S
C73         C529   1.476       .  S
C74          C78   1.533       .  S
C74          C76   1.549       .  S
C74          H80   1.106       .  S
C75          H81   1.083       .  S
C75          C76   1.375       .  D
C76          C88   1.499       .  S
C77          H82   1.086       .  S
C77          C78   1.364       .  D
C78         C514   1.483       .  S
C83          C84   1.547       .  S
C83          C89   1.536       .  S
C83          C87   1.534       .  S
C83         C634   1.544       .  S
C84          H91   1.082       .  S
C84          C85   1.363       .  D
C85          C86   1.539       .  S
C85         C490   1.481       .  S
C86          C90   1.540       .  S
C86          C88   1.550       .  S
C86          H92   1.108       .  S
C87          H93   1.082       .  S
C87          C88   1.371       .  D
C89          H94   1.087       .  S
C89          C90   1.364       .  D
C90         C466   1.488       .  S
Zn95         O99   1.968       .  S
Zn95        O100   2.016       .  S
Zn95        O104   2.035       .  S
Zn95        O111   2.017       .  S
Zn96         O99   1.963       .  S
Zn96        O101   2.027       .  S
Zn96        O103   2.019       .  S
Zn96        O107   2.029       .  S
Zn97         O99   1.969       .  S
Zn97        O102   2.045       .  S
Zn97        O105   2.036       .  S
Zn97        O108   2.034       .  S
Zn98         O99   1.964       .  S
Zn98        O106   2.028       .  S
Zn98        O109   2.029       .  S
Zn98        O110   2.016       .  S
O100        C112   1.273       .  A
O101        C113   1.275       .  A
O102        C114   1.276       .  A
O103        C112   1.274       .  A
O104        C114   1.276       .  A
O105        C113   1.277       .  A
O106        C115   1.275       .  A
O107        C116   1.273       .  A
O108        C115   1.276       .  A
O109        C116   1.275       .  A
O110        C117   1.274       .  A
O111        C117   1.273       .  A
C112        C610   1.483       .  S
C113        C385   1.490       .  S
C114        C409   1.488       .  S
C115        C322   1.489       .  S
C116        C361   1.497       .  S
C117        C337   1.478       .  S
C118        C119   1.546       .  S
C118        C124   1.538       .  S
C118        C122   1.541       .  S
C118        C754   1.548       .  S
C119        H126   1.080       .  S
C119        C120   1.358       .  D
C120        C121   1.532       .  S
C120        C394   1.477       .  S
C121        C125   1.541       .  S
C121        C123   1.554       .  S
C121        H127   1.106       .  S
C122        H128   1.083       .  S
C122        C123   1.376       .  D
C123        C135   1.505       .  S
C124        H129   1.086       .  S
C124        C125   1.364       .  D
C125        C418   1.493       .  S
C130        C131   1.531       .  S
C130        C136   1.547       .  S
C130        C134   1.533       .  S
C130        C289   1.543       .  S
C131        H138   1.086       .  S
C131        C132   1.361       .  D
C132        C133   1.546       .  S
C132        C370   1.490       .  S
C133        C137   1.538       .  S
C133        C135   1.554       .  S
C133        H139   1.106       .  S
C134        H140   1.082       .  S
C134        C135   1.374       .  D
C136        H141   1.081       .  S
C136        C137   1.365       .  D
C137        C346   1.491       .  S
Zn142       O146   1.960       .  S
Zn142       O147   2.016       .  S
Zn142       O151   2.033       .  S
Zn142       O158   2.022       .  S
Zn143       O146   1.962       .  S
Zn143       O148   2.018       .  S
Zn143       O150   2.022       .  S
Zn143       O154   2.020       .  S
Zn144       O146   1.961       .  S
Zn144       O149   2.014       .  S
Zn144       O152   2.027       .  S
Zn144       O155   2.014       .  S
Zn145       O146   1.959       .  S
Zn145       O153   2.012       .  S
Zn145       O156   2.019       .  S
Zn145       O157   2.020       .  S
O147        C159   1.274       .  A
O148        C160   1.272       .  A
O149        C161   1.273       .  A
O150        C159   1.274       .  A
O151        C161   1.275       .  A
O152        C160   1.276       .  A
O153        C162   1.273       .  A
O154        C163   1.274       .  A
O155        C162   1.273       .  A
O156        C163   1.273       .  A
O157        C164   1.274       .  A
O158        C164   1.273       .  A
C159        C265   1.483       .  S
C160        C241   1.496       .  S
C161        C442   1.487       .  S
C162        C193   1.476       .  S
C163        C298   1.485       .  S
C164        C217   1.485       .  S
C165        C166   1.534       .  S
C165        C171   1.548       .  S
C165        C169   1.545       .  S
C165        C562   1.551       .  S
C166        H173   1.087       .  S
C166        C167   1.359       .  D
C167        C168   1.536       .  S
C167        C274   1.475       .  S
C168        C172   1.536       .  S
C168        C170   1.548       .  S
C168        H174   1.106       .  S
C169        H175   1.083       .  S
C169        C170   1.378       .  D
C170        C182   1.503       .  S
C171        H176   1.077       .  S
C171        C172   1.363       .  D
C172        C250   1.492       .  S
C177        C178   1.544       .  S
C177        C183   1.542       .  S
C177        C181   1.539       .  S
C177        C313   1.552       .  S
C178        H185   1.075       .  S
C178        C179   1.357       .  D
C179        C180   1.534       .  S
C179        C226   1.480       .  S
C180        C184   1.536       .  S
C180        C182   1.548       .  S
C180        H186   1.107       .  S
C181        H187   1.082       .  S
C181        C182   1.377       .  D
C183        H188   1.086       .  S
C183        C184   1.369       .  D
C184        C202   1.483       .  S
C189        C190   1.404       .  A
C189        C194   1.400       .  A
C189        H199   1.084       .  S
C190        C195   1.483       .  S
C190        C191   1.413       .  A
C191        C192   1.398       .  A
C191        S196   1.804       .  S
C192        C193   1.403       .  A
C192        H197   1.084       .  S
C193        C194   1.414       .  A
C194        S198   1.804       .  S
C195        C200   1.411       .  A
C195        C204   1.404       .  A
S196        H212   1.406       .  S
S198        H209   1.407       .  S
C200        C201   1.401       .  A
C200        S205   1.808       .  S
C201        C202   1.403       .  A
C201        H206   1.082       .  S
C202        C203   1.413       .  A
C203        C204   1.400       .  A
C203        S207   1.803       .  S
C204        H208   1.084       .  S
S205        H210   1.407       .  S
S207        H211   1.406       .  S
C213        C214   1.401       .  A
C213       C1746   1.403   1_545  A
C213        H223   1.084       .  S
C214        C219   1.483       .  S
C214       C1743   1.413       .  A
C215        C216   1.398       .  A
C215       C1742   1.414       .  A
C215        S220   1.806       .  S
C216        C217   1.405       .  A
C216        H221   1.084       .  S
C217        C218   1.418       .  A
C218       C1741   1.402       .  A
C218        S222   1.802       .  S
C219        C224   1.411       .  A
C219        C228   1.399       .  A
S220       H1764   1.406       .  S
S222        H233   1.407       .  S
C224        C225   1.408       .  A
C224        S229   1.805       .  S
C225        C226   1.404       .  A
C225        H230   1.083       .  S
C226        C227   1.418       .  A
C227        C228   1.395       .  A
C227        S231   1.808       .  S
C228        H232   1.084       .  S
S229        H234   1.407       .  S
S231        H235   1.396       .  S
H236       S1748   1.406       .  S
C237        C238   1.399       .  A
C237        C242   1.400       .  A
C237        H247   1.084       .  S
C238        C243   1.481       .  S
C238        C239   1.412       .  A
C239        C240   1.400       .  A
C239        S244   1.806       .  S
C240        C241   1.410       .  A
C240        H245   1.083       .  S
C241        C242   1.422       .  A
C242        S246   1.800       .  S
C243        C248   1.410       .  A
C243       C1016   1.401       .  A
S244        H260   1.405       .  S
S246        H257   1.408       .  S
C248       C1013   1.405       .  A
C248        S253   1.806       .  S
C249        C250   1.405   1_556  A
C249       C1012   1.407       .  A
C249        H254   1.080       .  S
C250        C251   1.417       .  A
C251        C252   1.399       .  A
C251        S255   1.805       .  S
C252       C1007   1.400   1_554  A
C252       H1020   1.084       .  S
S253        H258   1.407       .  S
S255        H259   1.407       .  S
H256       C1016   1.084       .  S
C261        C262   1.402   1_565  A
C261       C1794   1.399       .  A
C261        H271   1.084   1_565  S
C262        C267   1.478       .  S
C262       C1791   1.411       .  A
C263        C264   1.402       .  A
C263       C1790   1.410       .  A
C263       S1032   1.804       .  S
C264        C265   1.408       .  A
C264        H269   1.084       .  S
C265        C266   1.415       .  A
C266       C1789   1.400       .  A
C266        S270   1.808       .  S
C267        C272   1.408       .  A
C267       C1040   1.402       .  A
S268       C1027   1.804       .  S
S268       H1812   1.406       .  S
S270        H281   1.406       .  S
C272       C1037   1.402       .  A
C272        S277   1.806       .  S
C273        C274   1.399   1_556  A
C273       C1036   1.400       .  A
C273        H278   1.081       .  S
C274        C275   1.412       .  A
C275        C276   1.401       .  A
C275        S279   1.804       .  S
C276       C1031   1.403   1_554  A
C276        H280   1.084       .  S
S277        H282   1.407       .  S
S279        H283   1.404       .  S
H284       S1796   1.405       .  S
C285        C286   1.401       .  A
C285        C290   1.407       .  A
C285        H295   1.082       .  S
C286        C291   1.481       .  S
C286        C287   1.406       .  A
C287        C288   1.396       .  A
C287        S292   1.805       .  S
C288        C289   1.413       .  A
C288        H293   1.076       .  S
C289        C290   1.424       .  A
C290        S294   1.811       .  S
C291        C296   1.409       .  A
C291        C300   1.401       .  A
S292        H308   1.406       .  S
S294        H305   1.406       .  S
C296        C297   1.403       .  A
C296        S301   1.807       .  S
C297        C298   1.406       .  A
C297        H302   1.083       .  S
C298        C299   1.418       .  A
C299        C300   1.401       .  A
C299        S303   1.803       .  S
C300        H304   1.084       .  S
S301        H306   1.407       .  S
S303        H307   1.407       .  S
C309        C310   1.402       .  A
C309        C314   1.411       .  A
C309        H319   1.082       .  S
C310        C315   1.484       .  S
C310        C311   1.405       .  A
C311        C312   1.398       .  A
C311        S316   1.809       .  S
C312        C313   1.418       .  A
C312        H317   1.066       .  S
C313        C314   1.423       .  A
C314        S318   1.809       .  S
C315        C320   1.409       .  A
C315        C324   1.401       .  A
S316        H332   1.401       .  S
S318        H329   1.407       .  S
C320        C321   1.407       .  A
C320        S325   1.806       .  S
C321        C322   1.409       .  A
C321        H326   1.082       .  S
C322        C323   1.418       .  A
C323        C324   1.401       .  A
C323        S327   1.803       .  S
C324        H328   1.084       .  S
S325        H330   1.407       .  S
S327        H331   1.407       .  S
C333        C338   1.397       .  A
C333       C1098   1.402       .  A
C333        H343   1.084       .  S
C334        C339   1.482       .  S
C334        C335   1.412       .  A
C334       C1097   1.403       .  A
C335       C1100   1.400       .  A
C335        S340   1.804       .  S
C336        C337   1.407       .  A
C336       C1099   1.402   1_554  A
C336        H341   1.084       .  S
C337        C338   1.413   1_554  A
C338        S342   1.803   1_556  S
C339        C344   1.408       .  A
C339        C348   1.400       .  A
S340        H356   1.406       .  S
S342        H353   1.407       .  S
C344        C345   1.403       .  A
C344        S349   1.806       .  S
C345        C346   1.408       .  A
C345        H350   1.083       .  S
C346        C347   1.415       .  A
C347        C348   1.401       .  A
C347        S351   1.803       .  S
C348        H352   1.083       .  S
S349        H354   1.407       .  S
S351        H355   1.406       .  S
C357       C2650   1.401       .  A
C357       C1890   1.403   1_556  A
C357        H367   1.084   1_556  S
C358       C1891   1.485       .  S
C358        C359   1.414   1_565  A
C358       C2649   1.402       .  A
C359       C1124   1.403       .  A
C359        S364   1.805       .  S
C360        C361   1.409   1_556  A
C360       C1123   1.401       .  A
C360        H365   1.083       .  S
C361        C362   1.422       .  A
C362       C1885   1.404   1_544  A
C362        S366   1.802   1_545  S
C363       C1886   1.483       .  S
C363        C368   1.411       .  A
C363        C372   1.398       .  A
S364        H380   1.405       .  S
S366        H377   1.408   1_565  S
C368        C369   1.409       .  A
C368        S373   1.803       .  S
C369        C370   1.404       .  A
C369        H374   1.083       .  S
C370        C371   1.420       .  A
C371        C372   1.397       .  A
C371        S375   1.807       .  S
C372        H376   1.084       .  S
S373        H378   1.407       .  S
S375        H379   1.405       .  S
C381        C382   1.403       .  A
C381       C1914   1.400       .  A
C381        H391   1.084       .  S
C382        C387   1.482       .  S
C382       C1911   1.411       .  A
C383        C384   1.403       .  A
C383       C1910   1.412   1_545  A
C383        S388   1.804   1_545  S
C384        C385   1.408       .  A
C384        H389   1.084       .  S
C385        C386   1.417       .  A
C386       C1909   1.401       .  A
C386        S390   1.803       .  S
C387        C392   1.411       .  A
C387        C396   1.402       .  A
S388       H1932   1.406       .  S
S390        H401   1.407       .  S
C392        C393   1.405       .  A
C392        S397   1.806       .  S
C393        C394   1.402       .  A
C393        H398   1.083       .  S
C394        C395   1.411       .  A
C395        C396   1.398       .  A
C395        S399   1.803       .  S
C396        H400   1.084       .  S
S397        H402   1.407       .  S
S399        H403   1.406       .  S
H404       S1916   1.406       .  S
C405        C406   1.404       .  A
C405        C410   1.402       .  A
C405        H415   1.084       .  S
C406        C411   1.492       .  S
C406        C407   1.415       .  A
C407        C408   1.405       .  A
C407        S412   1.804       .  S
C408        C409   1.406       .  A
C408        H413   1.084       .  S
C409        C410   1.415       .  A
C410        S414   1.803       .  S
C411        C416   1.411       .  A
C411        C420   1.406       .  A
S412        H428   1.406       .  S
S414        H425   1.407       .  S
C416        C417   1.402       .  A
C416        S421   1.808       .  S
C417        C418   1.405       .  A
C417        H422   1.082       .  S
C418        C419   1.415       .  A
C419        C420   1.406       .  A
C419        S423   1.802       .  S
C420        H424   1.083       .  S
S421        H426   1.407       .  S
S423        H427   1.406       .  S
C429        C430   1.400       .  A
C429        C434   1.408       .  A
C429        H439   1.082       .  S
C430        C435   1.483   1_655  S
C430        C431   1.406       .  A
C431        C432   1.398       .  A
C431        S436   1.808       .  S
C432        C433   1.417       .  A
C432        H437   1.065       .  S
C433        C434   1.424       .  A
C434        S438   1.809       .  S
C435        C440   1.408       .  A
C435        C444   1.402       .  A
S436        H452   1.405   1_655  S
S438        H449   1.407       .  S
C440        C441   1.404       .  A
C440        S445   1.807       .  S
C441        C442   1.409       .  A
C441        H446   1.083       .  S
C442        C443   1.417       .  A
C443        C444   1.401       .  A
C443        S447   1.801       .  S
C444        H448   1.084       .  S
S445        H450   1.407       .  S
S447        H451   1.407       .  S
C453        C454   1.400       .  A
C453        C458   1.404   1_565  A
C453       H1991   1.083       .  S
C454       C1987   1.476       .  S
C454        C455   1.411       .  A
C455        C456   1.397   1_565  A
C455        S460   1.806       .  S
C456        C457   1.405       .  A
C456        H461   1.084       .  S
C457        C458   1.416       .  A
C458        S462   1.808       .  S
C459       C1982   1.479       .  S
C459        C464   1.408       .  A
C459        C468   1.401       .  A
S460        H476   1.405       .  S
S462        H473   1.407       .  S
H463       C1981   1.084       .  S
C464        C465   1.403       .  A
C464        S469   1.806       .  S
C465        C466   1.404       .  A
C465        H470   1.079       .  S
C466        C467   1.416       .  A
C467        C468   1.400       .  A
C467        S471   1.803       .  S
C468        H472   1.084       .  S
S469        H474   1.407       .  S
S471        H475   1.407       .  S
C477        C478   1.402       .  A
C477        C482   1.398       .  A
C477        H487   1.084       .  S
C478        C483   1.485       .  S
C478        C479   1.413       .  A
C479        C480   1.404       .  A
C479        S484   1.803       .  S
C480        C481   1.406       .  A
C480        H485   1.084       .  S
C481        C482   1.416       .  A
C482        S486   1.805       .  S
C483        C488   1.411       .  A
C483        C492   1.403       .  A
S484        H500   1.406       .  S
S486        H497   1.407       .  S
C488        C489   1.403       .  A
C488        S493   1.807       .  S
C489        C490   1.403       .  A
C489        H494   1.081       .  S
C490        C491   1.411       .  A
C491        C492   1.401       .  A
C491        S495   1.801       .  S
C492        H496   1.084       .  S
S493        H498   1.407       .  S
S495        H499   1.403       .  S
C501        C502   1.403   1_545  A
C501        C506   1.402       .  A
C501        H511   1.084   1_545  S
C502       C2035   1.483       .  S
C502        C503   1.413   1_565  A
C503       C1268   1.399       .  A
C503       S2036   1.805   1_545  S
C504       C1267   1.400       .  A
C504       C1269   1.405   1_556  A
C504        H509   1.084       .  S
C505        C829   1.481       .  S
C505        C506   1.415       .  A
C505       C1268   1.405       .  A
C506        S510   1.802       .  S
C507       C2030   1.483       .  S
C507        C512   1.411       .  A
C507        C516   1.403       .  A
S508       C2031   1.805       .  S
S508        H524   1.406       .  S
S510        H521   1.407       .  S
C512        C513   1.403       .  A
C512        S517   1.807       .  S
C513        C514   1.404       .  A
C513        H518   1.082       .  S
C514        C515   1.413       .  A
C515        C516   1.398       .  A
C515        S519   1.803       .  S
C516        H520   1.084       .  S
S517        H522   1.407       .  S
S519        H523   1.407       .  S
C525        C526   1.402       .  A
C525        C530   1.399       .  A
C525        H535   1.083       .  S
C526        C531   1.482       .  S
C526        C527   1.415       .  A
C527        C528   1.402       .  A
C527        S532   1.803       .  S
C528        C529   1.401       .  A
C528        H533   1.084       .  S
C529        C530   1.410       .  A
C530        S534   1.808       .  S
C531        C536   1.412       .  A
C531        C540   1.400       .  A
S532        H548   1.405       .  S
S534        H545   1.406       .  S
C536        C537   1.402       .  A
C536        S541   1.808       .  S
C537        C538   1.404       .  A
C537       H1306   1.083       .  S
C538        C830   1.485       .  S
C538        C539   1.419       .  A
C539        C540   1.400       .  A
C539        S543   1.804       .  S
C540        H544   1.084       .  S
S541       H1310   1.407       .  S
H542       C1301   1.082       .  S
S543        H547   1.407       .  S
H546       S1305   1.407       .  S
C549        C550   1.400   1_655  A
C549        C554   1.407       .  A
C549        H559   1.083       .  S
C550        C555   1.486       .  S
C550        C551   1.411   1_455  A
C551        C552   1.401       .  A
C551        S556   1.804   1_655  S
C552        C553   1.408       .  A
C552        H557   1.083       .  S
C553        C554   1.423       .  A
C554        S558   1.809       .  S
C555        C560   1.403       .  A
C555        C564   1.401       .  A
S556        H572   1.405       .  S
S558        H569   1.407       .  S
C560        C561   1.401       .  A
C560        S565   1.810       .  S
C561        C562   1.416       .  A
C561        H566   1.069       .  S
C562        C563   1.426       .  A
C563        C564   1.410       .  A
C563        S567   1.810       .  S
C564        H568   1.082       .  S
S565        H570   1.407       .  S
S567        H571   1.406       .  S
C573        C574   1.400       .  A
C573        C578   1.408       .  A
C573        H583   1.084       .  S
C574        C579   1.482       .  S
C574        C575   1.408       .  A
C575        C576   1.394       .  A
C575       S1344   1.807       .  S
C576        C577   1.412       .  A
C576        H581   1.079       .  S
C577        C578   1.426       .  A
C578        S582   1.811       .  S
C579        C584   1.409       .  A
C579        C588   1.401       .  A
S580       C1339   1.806       .  S
S580       H1360   1.404       .  S
S582        H593   1.406       .  S
C584        C585   1.404       .  A
C584        S589   1.806       .  S
C585        C586   1.407       .  A
C585        H590   1.083       .  S
C586        C587   1.415       .  A
C587        C588   1.399       .  A
C587        S591   1.801       .  S
C588        H592   1.084       .  S
S589        H594   1.407       .  S
S591        H595   1.407       .  S
H596       S1344   1.405       .  S
C597        C598   1.395       .  A
C597        C602   1.398       .  A
C597        H607   1.084       .  S
C598        C603   1.477       .  S
C598        C599   1.408       .  A
C599        C600   1.401       .  A
C599        S604   1.808       .  S
C600        C601   1.415       .  A
C600        H605   1.078       .  S
C601        C602   1.428       .  A
C602        S606   1.808       .  S
C603        C608   1.408       .  A
C603        C612   1.400       .  A
S604        H620   1.403       .  S
S606        H617   1.407       .  S
C608        C609   1.400       .  A
C608        S613   1.807       .  S
C609        C610   1.405       .  A
C609        H614   1.083       .  S
C610        C611   1.419       .  A
C611        C612   1.401       .  A
C611        S615   1.804       .  S
C612        H616   1.084       .  S
S613        H618   1.407       .  S
S615        H619   1.407       .  S
C621        C622   1.402       .  A
C621        C626   1.400       .  A
C621        H631   1.084       .  S
C622        C627   1.482       .  S
C622        C623   1.412       .  A
C623        C624   1.402       .  A
C623        S628   1.804       .  S
C624        C625   1.406       .  A
C624        H629   1.084       .  S
C625        C626   1.415       .  A
C626        S630   1.804       .  S
C627        C632   1.405       .  A
C627        C636   1.397       .  A
S628        H644   1.405       .  S
S630        H641   1.407       .  S
C632        C633   1.403       .  A
C632        S637   1.808       .  S
C633        C634   1.414       .  A
C633        H638   1.075       .  S
C634        C635   1.428       .  A
C635        C636   1.404       .  A
C635        S639   1.811       .  S
C636        H640   1.083       .  S
S637        H642   1.406       .  S
S639        H643   1.406       .  S
C645        C646   1.403       .  A
C645        C650   1.399       .  A
C645        H655   1.084       .  S
C646        C651   1.482       .  S
C646        C647   1.413       .  A
C647        C648   1.400       .  A
C647        S652   1.803       .  S
C648        C649   1.402       .  A
C648        H653   1.083       .  S
C649        C807   1.477       .  S
C649        C650   1.411       .  A
C650       S1418   1.804       .  S
C651        C656   1.409   1_545  A
C651       C2188   1.401       .  A
S652        H668   1.406       .  S
S654       C1414   1.803       .  S
S654        H665   1.407       .  S
C656       C2185   1.403       .  A
C656        S661   1.807   1_565  S
C657        C658   1.405       .  A
C657       C2184   1.401       .  A
C657        H662   1.083       .  S
C658        C659   1.417       .  A
C659        C660   1.403       .  A
C659        S663   1.803       .  S
C660       C2179   1.402       .  A
C660        H664   1.084       .  S
S661        H666   1.407   1_545  S
S663        H667   1.407       .  S
C669        C670   1.406       .  A
C669        C674   1.405       .  A
C669        H679   1.084       .  S
C670        C675   1.485       .  S
C670        C671   1.413       .  A
C671        C672   1.395       .  A
C671        S676   1.805       .  S
C672        C673   1.402       .  A
C672        H677   1.085       .  S
C673        C802   1.480       .  S
C673        C674   1.412       .  A
C674       S1442   1.803       .  S
C675        C680   1.409       .  A
C675        C684   1.402       .  A
S676        H692   1.406       .  S
S678       C1438   1.804       .  S
S678        H689   1.405       .  S
C680        C681   1.407       .  A
C680        S685   1.806       .  S
C681        C682   1.409       .  A
C681        H686   1.082       .  S
C682        C683   1.415       .  A
C683        C684   1.396       .  A
C683        S687   1.804       .  S
C684        H688   1.084       .  S
S685        H690   1.407       .  S
S687        H691   1.407       .  S
C693        C694   1.399       .  A
C693        C698   1.393       .  A
C693        H703   1.084       .  S
C694        C699   1.488       .  S
C694        C695   1.416       .  A
C695        C696   1.408       .  A
C695       S2228   1.803       .  S
C696        C697   1.406       .  A
C696        H701   1.084       .  S
C697        C698   1.416       .  A
C698        S702   1.799       .  S
C699        C704   1.414       .  A
C699       C2236   1.403   1_545  A
S700       C2223   1.803       .  S
S700        H716   1.406       .  S
S702        H713   1.406       .  S
C704       C2233   1.404       .  A
C704        S709   1.808       .  S
C705        C706   1.402       .  A
C705       C2232   1.404       .  A
C705        H710   1.083       .  S
C706        C707   1.414       .  A
C707        C708   1.402       .  A
C707        S711   1.804       .  S
C708       C2227   1.404       .  A
C708        H712   1.084       .  S
S709        H714   1.407       .  S
S711        H715   1.406       .  S
C717        C718   1.399       .  A
C717        C722   1.403       .  A
C717        H727   1.083       .  S
C718        C723   1.477       .  S
C718        C719   1.408       .  A
C719        C720   1.397       .  A
C719        S724   1.804       .  S
C720        C721   1.408       .  A
C720        H725   1.084       .  S
C721        C722   1.418       .  A
C722        S726   1.805       .  S
C723        C728   1.408       .  A
C723        C732   1.401       .  A
S724        H740   1.405       .  S
S726        H737   1.406       .  S
C728        C729   1.399       .  A
C728        S733   1.808       .  S
C729        C730   1.405       .  A
C729        H734   1.083       .  S
C730        C731   1.418       .  A
C731        C732   1.401       .  A
C731        S735   1.802       .  S
C732        H736   1.084       .  S
S733        H738   1.407       .  S
S735        H739   1.407       .  S
C741        C742   1.402       .  A
C741        C746   1.401       .  A
C741        H751   1.084       .  S
C742        C747   1.485       .  S
C742        C743   1.413       .  A
C743        C744   1.402       .  A
C743        S748   1.804       .  S
C744        C745   1.405       .  A
C744        H749   1.084       .  S
C745        C746   1.416       .  A
C746        S750   1.804       .  S
C747        C752   1.404       .  A
C747        C756   1.401       .  A
S748        H764   1.406       .  S
S750        H761   1.407       .  S
C752        C753   1.399       .  A
C752        S757   1.810       .  S
C753        C754   1.414       .  A
C753        H758   1.072       .  S
C754        C755   1.424       .  A
C755        C756   1.409       .  A
C755        S759   1.810       .  S
C756        H760   1.082       .  S
S757        H762   1.407       .  S
S759        H763   1.407       .  S
Zn765       O769   1.968       .  S
Zn765       O770   2.041       .  S
Zn765       O774   2.037       .  S
Zn765       O781   2.026       .  S
Zn766       O769   1.967       .  S
Zn766       O771   2.022       .  S
Zn766       O773   2.015       .  S
Zn766       O777   2.037       .  S
Zn767       O769   1.965       .  S
Zn767       O772   2.013       .  S
Zn767       O775   2.012       .  S
Zn767       O778   2.014       .  S
Zn768       O769   1.965       .  S
Zn768       O776   2.029       .  S
Zn768       O779   2.022       .  S
Zn768       O780   2.028       .  S
O770        C782   1.277       .  A
O771        C783   1.274       .  A
O772        C784   1.272       .  A
O773        C782   1.273       .  A
O774        C784   1.276       .  A
O775        C783   1.272       .  A
O776        C785   1.275       .  A
O777        C786   1.276       .  A
O778        C785   1.273       .  A
O779        C786   1.274       .  A
O780        C787   1.276       .  A
O781        C787   1.274       .  A
C782       C1509   1.481       .  S
C783       C1494   1.481       .  S
C784       C1470   1.479       .  S
C785       C1389   1.483       .  S
C786       C1446   1.489       .  S
C787       C1422   1.490       .  S
C788        C789   1.536       .  S
C788        C794   1.529       .  S
C788        C792   1.544       .  S
C788       C1365   1.541       .  S
C789        H796   1.086       .  S
C789        C790   1.365       .  D
C790        C791   1.541       .  S
C790       C1485   1.488       .  S
C791        C795   1.545       .  S
C791        C793   1.555       .  S
C791        H797   1.105       .  S
C792        H798   1.076       .  S
C792        C793   1.375       .  D
C793        C805   1.504       .  S
C794        H799   1.086       .  S
C794        C795   1.360       .  D
C795       C1461   1.494       .  S
C800        C801   1.545       .  S
C800        C806   1.532       .  S
C800        C804   1.543       .  S
C800       C1341   1.544       .  S
C801        H808   1.084       .  S
C801        C802   1.361       .  D
C802        C803   1.534       .  S
C803        C807   1.532       .  S
C803        C805   1.555       .  S
C803        H809   1.106       .  S
C804        H810   1.080       .  S
C804        C805   1.376       .  D
C806        H811   1.087       .  S
C806        C807   1.359       .  D
Zn812       O816   1.965       .  S
Zn812       O817   2.029       .  S
Zn812       O821   2.037       .  S
Zn812       O828   2.023       .  S
Zn813       O816   1.966       .  S
Zn813       O818   2.040       .  S
Zn813       O820   2.021       .  S
Zn813       O824   2.035       .  S
Zn814       O816   1.947       .  S
Zn814       O819   2.003       .  S
Zn814       O822   1.997       .  S
Zn814       O825   1.995       .  S
Zn815       O816   1.962       .  S
Zn815       O823   2.030       .  S
Zn815       O826   2.008       .  S
Zn815       O827   2.012       .  S
O817        C829   1.275       .  A
O818        C830   1.277       .  A
O819        C831   1.271       .  A
O820        C829   1.275       .  A
O821        C831   1.275       .  A
O822        C830   1.271       .  A
O823        C832   1.274       .  A
O824        C833   1.277       .  A
O825        C832   1.270       .  A
O826        C833   1.271       .  A
O827        C834   1.273       .  A
O828        C834   1.275       .  A
C831       C1350   1.483       .  S
C832       C1245   1.480       .  S
C833       C1317   1.496       .  S
C834       C1221   1.482       .  S
C835        C836   1.546       .  S
C835        C841   1.537       .  S
C835        C839   1.543       .  S
C835       C1197   1.547       .  S
C836        H843   1.080       .  S
C836        C837   1.359       .  D
C837        C838   1.534       .  S
C837       C1293   1.479       .  S
C838        C842   1.537       .  S
C838        C840   1.549       .  S
C838        H844   1.106       .  S
C839        H845   1.083       .  S
C839        C840   1.375       .  D
C840        C852   1.501       .  S
C841        H846   1.086       .  S
C841        C842   1.364       .  D
C842       C1278   1.489       .  S
C847        C848   1.546       .  S
C847        C853   1.536       .  S
C847        C851   1.538       .  S
C847       C1398   1.546       .  S
C848        H855   1.080       .  S
C848        C849   1.361       .  D
C849        C850   1.538       .  S
C849       C1254   1.478       .  S
C850        C854   1.539       .  S
C850        C852   1.550       .  S
C850        H856   1.107       .  S
C851        H857   1.082       .  S
C851        C852   1.373       .  D
C853        H858   1.086       .  S
C853        C854   1.364       .  D
C854       C1230   1.490       .  S
Zn859       O863   1.966       .  S
Zn859       O864   2.018       .  S
Zn859       O868   2.035       .  S
Zn859       O875   2.020       .  S
Zn860       O863   1.961       .  S
Zn860       O865   2.021       .  S
Zn860       O867   2.016       .  S
Zn860       O871   2.018       .  S
Zn861       O863   1.968       .  S
Zn861       O866   2.043       .  S
Zn861       O869   2.034       .  S
Zn861       O872   2.030       .  S
Zn862       O863   1.969       .  S
Zn862       O870   2.027       .  S
Zn862       O873   2.034       .  S
Zn862       O874   2.013       .  S
O864        C876   1.274       .  A
O865        C877   1.274       .  A
O866        C878   1.276       .  A
O867        C876   1.274       .  A
O868        C878   1.276       .  A
O869        C877   1.276       .  A
O870        C879   1.276       .  A
O871        C880   1.273       .  A
O872        C879   1.276       .  A
O873        C880   1.275       .  A
O874        C881   1.273       .  A
O875        C881   1.274       .  A
C876       C1374   1.478       .  S
C877       C1149   1.490       .  S
C878       C1173   1.486       .  S
C879       C1086   1.492       .  S
C880       C1125   1.487       .  S
C881       C1101   1.481       .  S
C882        C883   1.545       .  S
C882        C888   1.538       .  S
C882        C886   1.540       .  S
C882       C1518   1.549       .  S
C883        H890   1.080       .  S
C883        C884   1.358       .  D
C884        C885   1.531       .  S
C884       C1158   1.475       .  S
C885        C889   1.542       .  S
C885        C887   1.554       .  S
C885        H891   1.106       .  S
C886        H892   1.082       .  S
C886        C887   1.377       .  D
C887        C899   1.506       .  S
C888        H893   1.086       .  S
C888        C889   1.365       .  D
C889       C1182   1.493       .  S
C894        C895   1.531       .  S
C894        C900   1.548       .  S
C894        C898   1.537       .  S
C894       C1053   1.546       .  S
C895        H902   1.087       .  S
C895        C896   1.360       .  D
C896        C897   1.545       .  S
C896       C1134   1.489       .  S
C897        C901   1.536       .  S
C897        C899   1.553       .  S
C897        H903   1.105       .  S
C898        H904   1.082       .  S
C898        C899   1.375       .  D
C900        H905   1.079       .  S
C900        C901   1.366       .  D
C901       C1110   1.489       .  S
Zn906       O910   1.959       .  S
Zn906       O911   2.015       .  S
Zn906       O915   2.031       .  S
Zn906       O922   2.018       .  S
Zn907       O910   1.967       .  S
Zn907       O912   2.033       .  S
Zn907       O914   2.037       .  S
Zn907       O918   2.020       .  S
Zn908       O910   1.960       .  S
Zn908       O913   2.008       .  S
Zn908       O916   2.024       .  S
Zn908       O919   2.010       .  S
Zn909       O910   1.961       .  S
Zn909       O917   2.013       .  S
Zn909       O920   2.019       .  S
Zn909       O921   2.019       .  S
O911        C923   1.274       .  A
O912        C924   1.274       .  A
O913        C925   1.273       .  A
O914        C923   1.276       .  A
O915        C925   1.275       .  A
O916        C924   1.275       .  A
O917        C926   1.273       .  A
O918        C927   1.275       .  A
O919        C926   1.272       .  A
O920        C927   1.272       .  A
O921        C928   1.274       .  A
O922        C928   1.273       .  A
C923       C1029   1.488       .  S
C924       C1005   1.491       .  S
C925       C1206   1.482       .  S
C926        C957   1.475       .  S
C927       C1062   1.493       .  S
C928        C981   1.485       .  S
C929        C930   1.534       .  S
C929        C935   1.545       .  S
C929        C933   1.541       .  S
C929       C1326   1.544       .  S
C930        H937   1.087       .  S
C930        C931   1.358       .  D
C931        C932   1.536       .  S
C931       C1038   1.475       .  S
C932        C936   1.536       .  S
C932        C934   1.550       .  S
C932        H938   1.107       .  S
C933        H939   1.083       .  S
C933        C934   1.376       .  D
C934        C946   1.501       .  S
C935        H940   1.080       .  S
C935        C936   1.361       .  D
C936       C1014   1.484       .  S
C941        C942   1.546       .  S
C941        C947   1.542       .  S
C941        C945   1.539       .  S
C941       C1077   1.552       .  S
C942        H949   1.075       .  S
C942        C943   1.358       .  D
C943        C944   1.532       .  S
C943        C990   1.483       .  S
C944        C948   1.534       .  S
C944        C946   1.549       .  S
C944        H950   1.107       .  S
C945        H951   1.082       .  S
C945        C946   1.375       .  D
C947        H952   1.086       .  S
C947        C948   1.368       .  D
C948        C966   1.482       .  S
C953        C954   1.404       .  A
C953        C958   1.402       .  A
C953        H963   1.084       .  S
C954        C959   1.480       .  S
C954        C955   1.412       .  A
C955        C956   1.396       .  A
C955        S960   1.804       .  S
C956        C957   1.402       .  A
C956        H961   1.084       .  S
C957        C958   1.416       .  A
C958        S962   1.805       .  S
C959        C964   1.409       .  A
C959        C968   1.404       .  A
S960        H976   1.406       .  S
S962        H973   1.407       .  S
C964        C965   1.401       .  A
C964        S969   1.807       .  S
C965        C966   1.404       .  A
C965        H970   1.082       .  S
C966        C967   1.413       .  A
C967        C968   1.400       .  A
C967        S971   1.804       .  S
C968        H972   1.084       .  S
S969        H974   1.407       .  S
S971        H975   1.405       .  S
C977        C978   1.401       .  A
C977       C2510   1.404   1_545  A
C977        H987   1.084       .  S
C978        C983   1.485       .  S
C978       C2507   1.413       .  A
C979       C2506   1.412       .  A
C979        C980   1.398       .  A
C979        S984   1.805       .  S
C980        C981   1.406       .  A
C980        H985   1.084       .  S
C981        C982   1.419       .  A
C982       C2505   1.401       .  A
C982        S986   1.802       .  S
C983        C988   1.412       .  A
C983        C992   1.399       .  A
S984       H2528   1.406       .  S
S986        H997   1.407       .  S
C988        C989   1.409       .  A
C988        S993   1.804       .  S
C989        C990   1.403       .  A
C989        H994   1.083       .  S
C990        C991   1.417       .  A
C991        C992   1.394       .  A
C991        S995   1.807       .  S
C992        H996   1.084       .  S
S993        H998   1.406       .  S
S995        H999   1.400       .  S
H1000      S2512   1.406       .  S
C1001      C1002   1.402       .  A
C1001      C1006   1.404       .  A
C1001      H1011   1.084       .  S
C1002      C1007   1.483       .  S
C1002      C1003   1.411       .  A
C1003      C1004   1.399       .  A
C1003      S1008   1.804       .  S
C1004      C1005   1.406       .  A
C1004      H1009   1.084       .  S
C1005      C1006   1.419       .  A
C1006      S1010   1.799       .  S
C1007      C1012   1.410       .  A
S1008      H1024   1.405       .  S
S1010      H1021   1.407       .  S
C1012      S1017   1.805       .  S
C1013      C1014   1.403       .  A
C1013      H1018   1.079       .  S
C1014      C1015   1.415       .  A
C1015      C1016   1.398       .  A
C1015      S1019   1.805       .  S
S1017      H1022   1.407       .  S
S1019      H1023   1.406       .  S
C1025      C1026   1.401       .  A
C1025      C2558   1.402   1_545  A
C1025      H1035   1.083       .  S
C1026      C1031   1.480       .  S
C1026      C2555   1.409   1_545  A
C1027      C2554   1.412       .  A
C1027      C1028   1.405       .  A
C1028      C1029   1.409       .  A
C1028      H1033   1.083       .  S
C1029      C1030   1.416       .  A
C1030      C2553   1.400       .  A
C1030      S1034   1.808       .  S
C1031      C1036   1.410       .  A
S1032      H2576   1.405       .  S
S1034      H1045   1.407       .  S
C1036      S1041   1.806       .  S
C1037      C1038   1.401       .  A
C1037      H1042   1.080       .  S
C1038      C1039   1.411       .  A
C1039      C1040   1.400       .  A
C1039      S1043   1.802       .  S
C1040      H1044   1.083       .  S
S1041      H1046   1.407       .  S
S1043      H1047   1.403       .  S
H1048      S2560   1.404       .  S
C1049      C1050   1.399       .  A
C1049      C1054   1.407       .  A
C1049      H1059   1.083       .  S
C1050      C1055   1.481       .  S
C1050      C1051   1.406       .  A
C1051      C1052   1.397       .  A
C1051      S1056   1.807       .  S
C1052      C1053   1.415       .  A
C1052      H1057   1.074       .  S
C1053      C1054   1.426       .  A
C1054      S1058   1.811       .  S
C1055      C1060   1.407       .  A
C1055      C1064   1.399       .  A
S1056      H1072   1.405       .  S
S1058      H1069   1.406       .  S
C1060      C1061   1.402       .  A
C1060      S1065   1.808       .  S
C1061      C1062   1.409       .  A
C1061      H1066   1.082       .  S
C1062      C1063   1.423       .  A
C1063      C1064   1.402       .  A
C1063      S1067   1.802       .  S
C1064      H1068   1.084       .  S
S1065      H1070   1.406       .  S
S1067      H1071   1.408       .  S
C1073      C1074   1.402       .  A
C1073      C1078   1.412       .  A
C1073      H1083   1.082       .  S
C1074      C1079   1.483       .  S
C1074      C1075   1.403       .  A
C1075      C1076   1.396       .  A
C1075      S1080   1.806       .  S
C1076      C1077   1.418       .  A
C1076      H1081   1.067       .  S
C1077      C1078   1.425       .  A
C1078      S1082   1.809       .  S
C1079      C1084   1.408       .  A
C1079      C1088   1.400       .  A
S1080      H1096   1.405       .  S
S1082      H1093   1.406       .  S
C1084      C1085   1.407       .  A
C1084      S1089   1.806       .  S
C1085      C1086   1.410       .  A
C1085      H1090   1.082       .  S
C1086      C1087   1.419       .  A
C1087      C1088   1.400       .  A
C1087      S1091   1.803       .  S
C1088      H1092   1.084       .  S
S1089      H1094   1.407       .  S
S1091      H1095   1.408       .  S
C1097      C1102   1.398       .  A
C1097      H1107   1.084       .  S
C1098      C1103   1.481       .  S
C1098      C1099   1.411       .  A
C1099      S1104   1.804       .  S
C1100      C1101   1.405       .  A
C1100      H1105   1.084       .  S
C1101      C1102   1.415       .  A
C1102      S1106   1.804       .  S
C1103      C1108   1.407       .  A
C1103      C1112   1.401       .  A
S1104      H1120   1.406       .  S
S1106      H1117   1.407       .  S
C1108      C1109   1.401       .  A
C1108      S1113   1.806       .  S
C1109      C1110   1.407       .  A
C1109      H1114   1.083       .  S
C1110      C1111   1.414       .  A
C1111      C1112   1.403       .  A
C1111      S1115   1.804       .  S
C1112      H1116   1.083       .  S
S1113      H1118   1.407       .  S
S1115      H1119   1.406       .  S
C1121      C1886   1.401       .  A
C1121      C2654   1.403       .  A
C1121      H1131   1.084       .  S
C1122      C2655   1.485       .  S
C1122      C1885   1.401       .  A
C1122      C1123   1.411   1_565  A
C1123      S1128   1.804       .  S
C1124      C1125   1.407       .  A
C1124      H1129   1.084       .  S
C1125      C1126   1.416       .  A
C1126      C2649   1.399   1_545  A
C1126      S1130   1.803   1_545  S
C1127      C2650   1.485       .  S
C1127      C1132   1.411       .  A
C1127      C1136   1.399       .  A
S1128      H1144   1.405       .  S
S1130      H1141   1.407   1_565  S
C1132      C1133   1.409       .  A
C1132      S1137   1.804       .  S
C1133      C1134   1.404       .  A
C1133      H1138   1.083       .  S
C1134      C1135   1.419       .  A
C1135      C1136   1.398       .  A
C1135      S1139   1.806       .  S
C1136      H1140   1.084       .  S
S1137      H1142   1.407       .  S
S1139      H1143   1.405       .  S
C1145      C1146   1.402       .  A
C1145      C2678   1.400       .  A
C1145      H1155   1.084       .  S
C1146      C1151   1.480       .  S
C1146      C2675   1.411       .  A
C1147      C2674   1.412   1_545  A
C1147      C1148   1.403       .  A
C1147      S1152   1.803       .  S
C1148      C1149   1.408       .  A
C1148      H1153   1.084       .  S
C1149      C1150   1.418       .  A
C1150      C2673   1.400   1_545  A
C1150      S1154   1.804       .  S
C1151      C1156   1.410       .  A
C1151      C1160   1.402       .  A
S1152      H2696   1.406   1_545  S
S1154      H1165   1.408       .  S
C1156      C1157   1.404       .  A
C1156      S1161   1.806       .  S
C1157      C1158   1.401       .  A
C1157      H1162   1.083       .  S
C1158      C1159   1.411       .  A
C1159      C1160   1.399       .  A
C1159      S1163   1.803       .  S
C1160      H1164   1.084       .  S
S1161      H1166   1.407       .  S
S1163      H1167   1.405       .  S
H1168      S2680   1.405       .  S
C1169      C1170   1.405       .  A
C1169      C1174   1.403       .  A
C1169      H1179   1.084       .  S
C1170      C1175   1.494       .  S
C1170      C1171   1.415       .  A
C1171      C1172   1.405       .  A
C1171      S1176   1.804       .  S
C1172      C1173   1.405       .  A
C1172      H1177   1.084       .  S
C1173      C1174   1.415       .  A
C1174      S1178   1.803       .  S
C1175      C1180   1.411       .  A
C1175      C1184   1.407       .  A
S1176      H1192   1.406       .  S
S1178      H1189   1.407       .  S
C1180      C1181   1.403       .  A
C1180      S1185   1.807       .  S
C1181      C1182   1.405       .  A
C1181      H1186   1.083       .  S
C1182      C1183   1.414       .  A
C1183      C1184   1.407       .  A
C1183      S1187   1.803       .  S
C1184      H1188   1.083       .  S
S1185      H1190   1.407       .  S
S1187      H1191   1.406       .  S
C1193      C1194   1.399       .  A
C1193      C1198   1.407       .  A
C1193      H1203   1.083       .  S
C1194      C1199   1.483   1_655  S
C1194      C1195   1.408       .  A
C1195      C1196   1.397       .  A
C1195      S1200   1.807       .  S
C1196      C1197   1.414       .  A
C1196      H1201   1.073       .  S
C1197      C1198   1.425       .  A
C1198      S1202   1.809       .  S
C1199      C1204   1.408       .  A
C1199      C1208   1.403       .  A
S1200      H1216   1.405   1_655  S
S1202      H1213   1.406       .  S
C1204      C1205   1.403       .  A
C1204      S1209   1.806       .  S
C1205      C1206   1.407       .  A
C1205      H1210   1.083       .  S
C1206      C1207   1.415       .  A
C1207      C1208   1.401       .  A
C1207      S1211   1.802       .  S
C1208      H1212   1.084       .  S
S1209      H1214   1.407       .  S
S1211      H1215   1.407       .  S
C1217      C1218   1.401   1_545  A
C1217      C1222   1.400       .  A
C1217      H2755   1.084   1_545  S
C1218      C2751   1.478       .  S
C1218      C1219   1.412       .  A
C1219      C1220   1.398   1_565  A
C1219      S1224   1.805       .  S
C1220      C1221   1.405       .  A
C1220      H1225   1.084       .  S
C1221      C1222   1.418       .  A
C1222      S1226   1.803       .  S
C1223      C2746   1.483       .  S
C1223      C1228   1.409       .  A
C1223      C1232   1.401       .  A
S1224      H1240   1.405       .  S
S1226      H1237   1.407       .  S
H1227      C2745   1.084       .  S
C1228      C1229   1.405       .  A
C1228      S1233   1.806       .  S
C1229      C1230   1.404       .  A
C1229      H1234   1.079       .  S
C1230      C1231   1.416       .  A
C1231      C1232   1.399       .  A
C1231      S1235   1.802       .  S
C1232      H1236   1.084       .  S
S1233      H1238   1.407       .  S
S1235      H1239   1.407       .  S
C1241      C1242   1.401       .  A
C1241      C1246   1.397       .  A
C1241      H1251   1.084       .  S
C1242      C1247   1.482       .  S
C1242      C1243   1.412       .  A
C1243      C1244   1.402       .  A
C1243      S1248   1.803       .  S
C1244      C1245   1.406       .  A
C1244      H1249   1.084       .  S
C1245      C1246   1.416       .  A
C1246      S1250   1.805       .  S
C1247      C1252   1.410       .  A
C1247      C1256   1.403       .  A
S1248      H1264   1.406       .  S
S1250      H1261   1.407       .  S
C1252      C1253   1.402       .  A
C1252      S1257   1.807       .  S
C1253      C1254   1.402       .  A
C1253      H1258   1.081       .  S
C1254      C1255   1.412       .  A
C1255      C1256   1.401       .  A
C1255      S1259   1.803       .  S
C1256      H1260   1.084       .  S
S1257      H1262   1.407       .  S
S1259      H1263   1.404       .  S
C1265      C1266   1.402   1_545  A
C1265      C1270   1.402       .  A
C1265      H1275   1.084   1_545  S
C1266      C2799   1.484       .  S
C1266      C1267   1.413   1_565  A
C1267      S2800   1.805   1_545  S
C1268      H1273   1.084       .  S
C1269      C1270   1.416   1_554  A
C1270      S1274   1.802       .  S
C1271      C2794   1.484       .  S
C1271      C1276   1.411       .  A
C1271      C1280   1.402       .  A
S1272      C2795   1.804       .  S
S1272      H1288   1.406       .  S
S1274      H1285   1.407       .  S
C1276      C1277   1.405       .  A
C1276      S1281   1.806       .  S
C1277      C1278   1.404       .  A
C1277      H1282   1.081       .  S
C1278      C1279   1.415       .  A
C1279      C1280   1.398       .  A
C1279      S1283   1.802       .  S
C1280      H1284   1.084       .  S
S1281      H1286   1.407       .  S
S1283      H1287   1.407       .  S
C1289      C1290   1.402       .  A
C1289      C1294   1.402       .  A
C1289      H1299   1.083       .  S
C1290      C1295   1.483       .  S
C1290      C1291   1.415       .  A
C1291      C1292   1.403       .  A
C1291      S1296   1.804       .  S
C1292      C1293   1.402       .  A
C1292      H1297   1.084       .  S
C1293      C1294   1.410       .  A
C1294      S1298   1.807       .  S
C1295      C1300   1.408       .  A
C1295      C1304   1.400       .  A
S1296      H1312   1.403       .  S
S1298      H1309   1.406       .  S
C1300      C1301   1.403       .  A
C1300      S1305   1.807       .  S
C1301      C1302   1.408   1_556  A
C1302      C1303   1.422   1_554  A
C1303      C1304   1.402       .  A
C1303      S1307   1.803   1_556  S
C1304      H1308   1.084       .  S
S1307      H1311   1.408       .  S
C1313      C1314   1.398   1_655  A
C1313      C1318   1.406       .  A
C1313      H1323   1.083       .  S
C1314      C1319   1.481       .  S
C1314      C1315   1.410   1_455  A
C1315      C1316   1.398       .  A
C1315      S1320   1.805   1_655  S
C1316      C1317   1.408       .  A
C1316      H1321   1.083       .  S
C1317      C1318   1.425       .  A
C1318      S1322   1.811       .  S
C1319      C1324   1.403       .  A
C1319      C1328   1.399       .  A
S1320      H1336   1.405       .  S
S1322      H1333   1.407       .  S
C1324      C1325   1.398       .  A
C1324      S1329   1.809       .  S
C1325      C1326   1.414       .  A
C1325      H1330   1.073       .  S
C1326      C1327   1.426       .  A
C1327      C1328   1.407       .  A
C1327      S1331   1.811       .  S
C1328      H1332   1.083       .  S
S1329      H1334   1.407       .  S
S1331      H1335   1.406       .  S
C1337      C1338   1.399       .  A
C1337      C1342   1.405       .  A
C1337      H1347   1.084       .  S
C1338      C1343   1.481       .  S
C1338      C1339   1.405       .  A
C1339      C1340   1.396       .  A
C1340      C1341   1.416       .  A
C1340      H1345   1.078       .  S
C1341      C1342   1.429       .  A
C1342      S1346   1.805       .  S
C1343      C1348   1.407       .  A
C1343      C1352   1.402       .  A
S1346      H1357   1.402       .  S
C1348      C1349   1.405       .  A
C1348      S1353   1.806       .  S
C1349      C1350   1.408       .  A
C1349      H1354   1.083       .  S
C1350      C1351   1.415       .  A
C1351      C1352   1.400       .  A
C1351      S1355   1.802       .  S
C1352      H1356   1.084       .  S
S1353      H1358   1.407       .  S
S1355      H1359   1.407       .  S
C1361      C1362   1.395       .  A
C1361      C1366   1.398       .  A
C1361      H1371   1.083       .  S
C1362      C1367   1.481       .  S
C1362      C1363   1.408       .  A
C1363      C1364   1.403       .  A
C1363      S1368   1.804       .  S
C1364      C1365   1.415       .  A
C1364      H1369   1.076       .  S
C1365      C1366   1.429       .  A
C1366      S1370   1.810       .  S
C1367      C1372   1.412       .  A
C1367      C1376   1.401       .  A
S1368      H1384   1.406       .  S
S1370      H1381   1.407       .  S
C1372      C1373   1.402       .  A
C1372      S1377   1.808       .  S
C1373      C1374   1.404       .  A
C1373      H1378   1.083       .  S
C1374      C1375   1.415       .  A
C1375      C1376   1.400       .  A
C1375      S1379   1.803       .  S
C1376      H1380   1.084       .  S
S1377      H1382   1.407       .  S
S1379      H1383   1.407       .  S
C1385      C1386   1.401       .  A
C1385      C1390   1.399       .  A
C1385      H1395   1.084       .  S
C1386      C1391   1.481       .  S
C1386      C1387   1.412       .  A
C1387      C1388   1.402       .  A
C1387      S1392   1.804       .  S
C1388      C1389   1.406       .  A
C1388      H1393   1.084       .  S
C1389      C1390   1.416       .  A
C1390      S1394   1.804       .  S
C1391      C1396   1.403       .  A
C1391      C1400   1.397       .  A
S1392      H1408   1.405       .  S
S1394      H1405   1.407       .  S
C1396      C1397   1.402       .  A
C1396      S1401   1.809       .  S
C1397      C1398   1.415       .  A
C1397      H1402   1.072       .  S
C1398      C1399   1.427       .  A
C1399      C1400   1.405       .  A
C1399      S1403   1.810       .  S
C1400      H1404   1.083       .  S
S1401      H1406   1.407       .  S
S1403      H1407   1.407       .  S
C1409      C1410   1.403   1_554  A
C1409      C1414   1.398       .  A
C1409      H1419   1.084       .  S
C1410      C1415   1.480       .  S
C1410      C1411   1.413       .  A
C1411      C1412   1.401       .  A
C1411      S1416   1.803       .  S
C1412      C1413   1.403   1_556  A
C1412      H1417   1.084       .  S
C1413      C1414   1.411       .  A
C1415      C1420   1.410       .  A
C1415      C2952   1.401       .  A
S1416      H1432   1.406       .  S
S1418      H1429   1.406       .  S
C1420      C2949   1.401   1_545  A
C1420      S1425   1.808       .  S
C1421      C2948   1.404       .  A
C1421      C1422   1.407       .  A
C1421      H1426   1.082       .  S
C1422      C1423   1.419       .  A
C1423      C1424   1.402       .  A
C1423      S1427   1.802       .  S
C1424      C2943   1.402       .  A
C1424      H1428   1.084       .  S
S1425      H1430   1.407   1_545  S
S1427      H1431   1.407       .  S
C1433      C1434   1.407       .  A
C1433      C1438   1.407   1_556  A
C1433      H1443   1.084   1_556  S
C1434      C1439   1.488       .  S
C1434      C1435   1.412       .  A
C1435      C1436   1.396       .  A
C1435      S1440   1.804       .  S
C1436      C1437   1.402   1_556  A
C1436      H1441   1.085       .  S
C1437      C1438   1.413       .  A
C1439      C1444   1.410       .  A
C1439      C1448   1.403       .  A
S1440      H1456   1.406       .  S
S1442      H1453   1.405       .  S
C1444      C1445   1.408       .  A
C1444      S1449   1.805       .  S
C1445      C1446   1.409       .  A
C1445      H1450   1.083       .  S
C1446      C1447   1.417       .  A
C1447      C1448   1.399       .  A
C1447      S1451   1.804       .  S
C1448      H1452   1.084       .  S
S1449      H1454   1.407       .  S
S1451      H1455   1.407       .  S
C1457      C1458   1.399       .  A
C1457      C1462   1.393       .  A
C1457      H1467   1.084       .  S
C1458      C1463   1.491       .  S
C1458      C1459   1.417       .  A
C1459      C1460   1.410       .  A
C1459      S2992   1.802       .  S
C1460      C1461   1.406       .  A
C1460      H1465   1.084       .  S
C1461      C1462   1.418       .  A
C1462      S1466   1.800       .  S
C1463      C1468   1.414       .  A
C1463      C3000   1.404   1_545  A
S1464      C2987   1.803       .  S
S1464      H1480   1.406       .  S
S1466      H1477   1.405       .  S
C1468      C2997   1.404       .  A
C1468      S1473   1.808       .  S
C1469      C2996   1.404       .  A
C1469      C1470   1.403       .  A
C1469      H1474   1.083       .  S
C1470      C1471   1.415       .  A
C1471      C1472   1.401       .  A
C1471      S1475   1.804       .  S
C1472      C2991   1.403       .  A
C1472      H1476   1.084       .  S
S1473      H1478   1.407       .  S
S1475      H1479   1.407       .  S
C1481      C1482   1.400       .  A
C1481      C1486   1.401       .  A
C1481      H1491   1.083       .  S
C1482      C1487   1.478       .  S
C1482      C1483   1.409       .  A
C1483      C1484   1.400       .  A
C1483      S1488   1.803       .  S
C1484      C1485   1.408       .  A
C1484      H1489   1.084       .  S
C1485      C1486   1.415       .  A
C1486      S1490   1.804       .  S
C1487      C1492   1.409       .  A
C1487      C1496   1.400       .  A
S1488      H1504   1.405       .  S
S1490      H1501   1.406       .  S
C1492      C1493   1.402       .  A
C1492      S1497   1.807       .  S
C1493      C1494   1.406       .  A
C1493      H1498   1.083       .  S
C1494      C1495   1.417       .  A
C1495      C1496   1.400       .  A
C1495      S1499   1.802       .  S
C1496      H1500   1.084       .  S
S1497      H1502   1.407       .  S
S1499      H1503   1.407       .  S
C1505      C1506   1.403       .  A
C1505      C1510   1.402       .  A
C1505      H1515   1.084       .  S
C1506      C1511   1.486       .  S
C1506      C1507   1.414       .  A
C1507      C1508   1.403       .  A
C1507      S1512   1.804       .  S
C1508      C1509   1.404       .  A
C1508      H1513   1.084       .  S
C1509      C1510   1.415       .  A
C1510      S1514   1.805       .  S
C1511      C1516   1.404       .  A
C1511      C1520   1.402       .  A
S1512      H1528   1.405       .  S
S1514      H1525   1.407       .  S
C1516      C1517   1.401       .  A
C1516      S1521   1.810       .  S
C1517      C1518   1.415       .  A
C1517      H1522   1.072       .  S
C1518      C1519   1.424       .  A
C1519      C1520   1.410       .  A
C1519      S1523   1.810       .  S
C1520      H1524   1.082       .  S
S1521      H1526   1.406       .  S
S1523      H1527   1.406       .  S
Zn1529     O1533   1.968       .  S
Zn1529     O1534   2.045       .  S
Zn1529     O1538   2.036       .  S
Zn1529     O1545   2.018       .  S
Zn1530     O1533   1.964       .  S
Zn1530     O1535   2.017       .  S
Zn1530     O1537   2.012       .  S
Zn1530     O1541   2.030       .  S
Zn1531     O1533   1.964       .  S
Zn1531     O1536   2.013       .  S
Zn1531     O1539   2.009       .  S
Zn1531     O1542   2.013       .  S
Zn1532     O1533   1.966       .  S
Zn1532     O1540   2.037       .  S
Zn1532     O1543   2.029       .  S
Zn1532     O1544   2.026       .  S
O1534      C1546   1.277       .  A
O1535      C1547   1.274       .  A
O1536      C1548   1.272       .  A
O1537      C1546   1.273       .  A
O1538      C1548   1.276       .  A
O1539      C1547   1.272       .  A
O1540      C1549   1.276       .  A
O1541      C1550   1.275       .  A
O1542      C1549   1.273       .  A
O1543      C1550   1.275       .  A
O1544      C1551   1.276       .  A
O1545      C1551   1.274       .  A
C1546      C2273   1.481       .  S
C1547      C2258   1.477       .  S
C1548      C2234   1.479       .  S
C1549      C2153   1.486       .  S
C1550      C2210   1.491       .  S
C1551      C2186   1.486       .  S
C1552      C1553   1.536       .  S
C1552      C1558   1.531       .  S
C1552      C1556   1.544       .  S
C1552      C2129   1.540       .  S
C1553      H1560   1.086       .  S
C1553      C1554   1.368       .  D
C1554      C1555   1.542       .  S
C1554      C2249   1.494       .  S
C1555      C1559   1.541       .  S
C1555      C1557   1.553       .  S
C1555      H1561   1.103       .  S
C1556      H1562   1.077       .  S
C1556      C1557   1.371       .  D
C1557      C1569   1.502       .  S
C1558      H1563   1.087       .  S
C1558      C1559   1.359       .  D
C1559      C2225   1.488       .  S
C1564      C1565   1.546       .  S
C1564      C1570   1.536       .  S
C1564      C1568   1.534       .  S
C1564      C2105   1.540       .  S
C1565      H1572   1.081       .  S
C1565      C1566   1.359       .  D
C1566      C1567   1.535       .  S
C1566      C2965   1.481       .  S
C1567      C1571   1.537       .  S
C1567      C1569   1.556       .  S
C1567      H1573   1.106       .  S
C1568      H1574   1.082       .  S
C1568      C1569   1.372       .  D
C1570      H1575   1.087       .  S
C1570      C1571   1.362       .  D
C1571      C2941   1.482       .  S
Zn1576     O1580   1.964       .  S
Zn1576     O1581   2.016       .  S
Zn1576     O1585   2.014       .  S
Zn1576     O1592   2.017       .  S
Zn1577     O1580   1.965       .  S
Zn1577     O1582   2.037       .  S
Zn1577     O1584   2.031       .  S
Zn1577     O1588   2.045       .  S
Zn1578     O1580   1.956       .  S
Zn1578     O1583   2.013       .  S
Zn1578     O1586   2.009       .  S
Zn1578     O1589   2.005       .  S
Zn1579     O1580   1.962       .  S
Zn1579     O1587   2.022       .  S
Zn1579     O1590   2.025       .  S
Zn1579     O1591   2.019       .  S
O1581      C1593   1.273       .  A
O1582      C1594   1.277       .  A
O1583      C1595   1.273       .  A
O1584      C1593   1.276       .  A
O1585      C1595   1.272       .  A
O1586      C1594   1.273       .  A
O1587      C1596   1.274       .  A
O1588      C1597   1.278       .  A
O1589      C1596   1.272       .  A
O1590      C1597   1.273       .  A
O1591      C1598   1.274       .  A
O1592      C1598   1.274       .  A
C1593      C2797   1.481   1_554  S
C1594      C2830   1.490       .  S
C1595      C2114   1.477       .  S
C1596      C2009   1.480       .  S
C1597      C2081   1.502       .  S
C1598      C1985   1.484       .  S
C1599      C1600   1.544       .  S
C1599      C1605   1.537       .  S
C1599      C1603   1.538       .  S
C1599      C1961   1.543       .  S
C1600      H1607   1.079       .  S
C1600      C1601   1.358       .  D
C1601      C1602   1.531       .  S
C1601      C2057   1.476       .  S
C1602      C1606   1.538       .  S
C1602      C1604   1.547       .  S
C1602      H1608   1.106       .  S
C1603      H1609   1.082       .  S
C1603      C1604   1.375       .  D
C1604      C1616   1.498       .  S
C1605      H1610   1.086       .  S
C1605      C1606   1.365       .  D
C1606      C2042   1.486       .  S
C1611      C1612   1.545       .  S
C1611      C1617   1.536       .  S
C1611      C1615   1.540       .  S
C1611      C2162   1.547       .  S
C1612      H1619   1.081       .  S
C1612      C1613   1.359       .  D
C1613      C1614   1.535       .  S
C1613      C2018   1.477       .  S
C1614      C1618   1.535       .  S
C1614      C1616   1.547       .  S
C1614      H1620   1.106       .  S
C1615      H1621   1.082       .  S
C1615      C1616   1.375       .  D
C1617      H1622   1.087       .  S
C1617      C1618   1.363       .  D
C1618      C1994   1.485       .  S
Zn1623     O1627   1.967       .  S
Zn1623     O1628   2.020       .  S
Zn1623     O1632   2.042       .  S
Zn1623     O1639   2.017       .  S
Zn1624     O1627   1.963       .  S
Zn1624     O1629   2.018       .  S
Zn1624     O1631   2.017       .  S
Zn1624     O1635   2.032       .  S
Zn1625     O1627   1.962       .  S
Zn1625     O1630   2.037       .  S
Zn1625     O1633   2.020       .  S
Zn1625     O1636   2.026       .  S
Zn1626     O1627   1.962       .  S
Zn1626     O1634   2.029       .  S
Zn1626     O1637   2.029       .  S
Zn1626     O1638   2.006       .  S
O1628      C1640   1.274       .  A
O1629      C1641   1.274       .  A
O1630      C1642   1.275       .  A
O1631      C1640   1.274       .  A
O1632      C1642   1.276       .  A
O1633      C1641   1.275       .  A
O1634      C1643   1.275       .  A
O1635      C1644   1.273       .  A
O1636      C1643   1.274       .  A
O1637      C1644   1.275       .  A
O1638      C1645   1.273       .  A
O1639      C1645   1.274       .  A
C1640      C2138   1.480       .  S
C1641      C1913   1.485       .  S
C1642      C1937   1.487       .  S
C1643      C1850   1.498       .  S
C1644      C1889   1.498       .  S
C1645      C1865   1.478       .  S
C1646      C1647   1.546       .  S
C1646      C1652   1.538       .  S
C1646      C1650   1.538       .  S
C1646      C2282   1.549       .  S
C1647      H1654   1.080       .  S
C1647      C1648   1.359       .  D
C1648      C1649   1.533       .  S
C1648      C1922   1.477       .  S
C1649      C1653   1.541       .  S
C1649      C1651   1.552       .  S
C1649      H1655   1.106       .  S
C1650      H1656   1.082       .  S
C1650      C1651   1.376       .  D
C1651      C1663   1.504       .  S
C1652      H1657   1.086       .  S
C1652      C1653   1.365       .  D
C1653      C1946   1.492       .  S
C1658      C1659   1.530       .  S
C1658      C1664   1.550       .  S
C1658      C1662   1.540       .  S
C1658      C1817   1.549       .  S
C1659      H1666   1.087       .  S
C1659      C1660   1.359       .  D
C1660      C1661   1.540       .  S
C1660      C1898   1.485       .  S
C1661      C1665   1.537       .  S
C1661      C1663   1.550       .  S
C1661      H1667   1.104       .  S
C1662      H1668   1.082       .  S
C1662      C1663   1.375       .  D
C1664      H1669   1.080       .  S
C1664      C1665   1.367       .  D
C1665      C1874   1.494       .  S
Zn1670     O1674   1.965       .  S
Zn1670     O1675   2.023       .  S
Zn1670     O1679   2.015       .  S
Zn1670     O1686   2.029       .  S
Zn1671     O1674   1.965       .  S
Zn1671     O1676   2.033       .  S
Zn1671     O1678   2.025       .  S
Zn1671     O1682   2.031       .  S
Zn1672     O1674   1.964       .  S
Zn1672     O1677   2.014       .  S
Zn1672     O1680   2.033       .  S
Zn1672     O1683   2.017       .  S
Zn1673     O1674   1.958       .  S
Zn1673     O1681   2.009       .  S
Zn1673     O1684   2.018       .  S
Zn1673     O1685   2.017       .  S
O1675      C1687   1.275       .  A
O1676      C1688   1.274       .  A
O1677      C1689   1.274       .  A
O1678      C1687   1.275       .  A
O1679      C1689   1.273       .  A
O1680      C1688   1.276       .  A
O1681      C1690   1.273       .  A
O1682      C1691   1.276       .  A
O1683      C1690   1.273       .  A
O1684      C1691   1.273       .  A
O1685      C1692   1.274       .  A
O1686      C1692   1.274       .  A
C1687      C1793   1.477       .  S
C1688      C1769   1.498       .  S
C1689      C1970   1.480       .  S
C1690      C1721   1.478       .  S
C1691      C1826   1.489       .  S
C1692      C1745   1.489       .  S
C1693      C1694   1.539       .  S
C1693      C1699   1.547       .  S
C1693      C1697   1.541       .  S
C1693      C2090   1.549       .  S
C1694      H1701   1.086       .  S
C1694      C1695   1.362       .  D
C1695      C1696   1.537       .  S
C1695      C1802   1.478       .  S
C1696      C1700   1.536       .  S
C1696      C1698   1.547       .  S
C1696      H1702   1.107       .  S
C1697      H1703   1.083       .  S
C1697      C1698   1.376       .  D
C1698      C1710   1.501       .  S
C1699      H1704   1.083       .  S
C1699      C1700   1.364       .  D
C1700      C1778   1.490       .  S
C1705      C1706   1.544       .  S
C1705      C1711   1.544       .  S
C1705      C1709   1.539       .  S
C1705      C1841   1.551       .  S
C1706      H1713   1.082       .  S
C1706      C1707   1.356       .  D
C1707      C1708   1.533       .  S
C1707      C1754   1.477       .  S
C1708      C1712   1.537       .  S
C1708      C1710   1.546       .  S
C1708      H1714   1.108       .  S
C1709      H1715   1.083       .  S
C1709      C1710   1.374       .  D
C1711      H1716   1.086       .  S
C1711      C1712   1.370       .  D
C1712      C1730   1.487       .  S
C1717      C1718   1.405       .  A
C1717      C1722   1.401       .  A
C1717      H1727   1.084       .  S
C1718      C1723   1.486       .  S
C1718      C1719   1.414       .  A
C1719      C1720   1.398       .  A
C1719      S1724   1.804       .  S
C1720      C1721   1.403       .  A
C1720      H1725   1.084       .  S
C1721      C1722   1.415       .  A
C1722      S1726   1.804       .  S
C1723      C1728   1.411       .  A
C1723      C1732   1.405       .  A
S1724      H1740   1.407       .  S
S1726      H1737   1.407       .  S
C1728      C1729   1.400       .  A
C1728      S1733   1.808       .  S
C1729      C1730   1.404       .  A
C1729      H1734   1.081       .  S
C1730      C1731   1.413       .  A
C1731      C1732   1.402       .  A
C1731      S1735   1.803       .  S
C1732      H1736   1.084       .  S
S1733      H1738   1.407       .  S
S1735      H1739   1.406       .  S
C1741      C1742   1.402       .  A
C1741      H1751   1.084       .  S
C1742      C1747   1.483       .  S
C1743      C1744   1.399   1_545  A
C1743      S1748   1.805       .  S
C1744      C1745   1.406       .  A
C1744      H1749   1.084       .  S
C1745      C1746   1.419       .  A
C1746      S1750   1.802       .  S
C1747      C1752   1.411       .  A
C1747      C1756   1.400       .  A
S1750      H1761   1.408       .  S
C1752      C1753   1.405       .  A
C1752      S1757   1.805       .  S
C1753      C1754   1.402       .  A
C1753      H1758   1.084       .  S
C1754      C1755   1.418       .  A
C1755      C1756   1.397       .  A
C1755      S1759   1.809       .  S
C1756      H1760   1.084       .  S
S1757      H1762   1.407       .  S
S1759      H1763   1.396       .  S
C1765      C1766   1.401       .  A
C1765      C1770   1.404       .  A
C1765      H1775   1.084       .  S
C1766      C1771   1.483       .  S
C1766      C1767   1.412       .  A
C1767      C1768   1.401       .  A
C1767      S1772   1.807       .  S
C1768      C1769   1.409       .  A
C1768      H1773   1.084       .  S
C1769      C1770   1.421       .  A
C1770      S1774   1.799       .  S
C1771      C1776   1.409       .  A
C1771      C2544   1.402       .  A
S1772      H1788   1.402       .  S
S1774      H1785   1.408       .  S
C1776      C2541   1.406       .  A
C1776      S1781   1.805       .  S
C1777      C2540   1.406   1_554  A
C1777      C1778   1.405       .  A
C1777      H1782   1.079   1_554  S
C1778      C1779   1.416       .  A
C1779      C1780   1.401       .  A
C1779      S1783   1.805       .  S
C1780      C2535   1.402   1_554  A
C1780      H2548   1.084       .  S
S1781      H1786   1.407       .  S
S1783      H1787   1.407       .  S
H1784      C2544   1.084       .  S
C1789      C1790   1.400       .  A
C1789      H1799   1.083       .  S
C1790      C1795   1.477       .  S
C1791      C1792   1.401   1_545  A
C1791      S2560   1.804       .  S
C1792      C1793   1.404       .  A
C1792      H1797   1.084       .  S
C1793      C1794   1.414       .  A
C1794      S1798   1.803       .  S
C1795      C1800   1.409       .  A
C1795      C2568   1.402       .  A
S1796      C2555   1.805   1_545  S
S1798      H1809   1.407       .  S
C1800      C2565   1.400       .  A
C1800      S1805   1.806       .  S
C1801      C2564   1.402       .  A
C1801      C1802   1.401   1_556  A
C1801      H1806   1.081       .  S
C1802      C1803   1.413       .  A
C1803      C1804   1.402       .  A
C1803      S1807   1.803       .  S
C1804      C2559   1.403   1_554  A
C1804      H1808   1.084       .  S
S1805      H1810   1.407       .  S
S1807      H1811   1.403       .  S
C1813      C1814   1.399       .  A
C1813      C1818   1.409       .  A
C1813      H1823   1.083       .  S
C1814      C1819   1.484       .  S
C1814      C1815   1.406       .  A
C1815      C1816   1.397       .  A
C1815      S1820   1.805       .  S
C1816      C1817   1.414       .  A
C1816      H1821   1.075       .  S
C1817      C1818   1.428       .  A
C1818      S1822   1.812       .  S
C1819      C1824   1.409       .  A
C1819      C1828   1.400       .  A
S1820      H1836   1.404       .  S
S1822      H1833   1.406       .  S
C1824      C1825   1.405       .  A
C1824      S1829   1.807       .  S
C1825      C1826   1.407       .  A
C1825      H1830   1.082       .  S
C1826      C1827   1.420       .  A
C1827      C1828   1.402       .  A
C1827      S1831   1.803       .  S
C1828      H1832   1.084       .  S
S1829      H1834   1.407       .  S
S1831      H1835   1.408       .  S
C1837      C1838   1.403       .  A
C1837      C1842   1.411       .  A
C1837      H1847   1.083       .  S
C1838      C1843   1.487       .  S
C1838      C1839   1.406       .  A
C1839      C1840   1.395       .  A
C1839      S1844   1.806       .  S
C1840      C1841   1.415       .  A
C1840      H1845   1.077       .  S
C1841      C1842   1.425       .  A
C1842      S1846   1.809       .  S
C1843      C1848   1.408       .  A
C1843      C1852   1.400       .  A
S1844      H1860   1.406       .  S
S1846      H1857   1.406       .  S
C1848      C1849   1.408       .  A
C1848      S1853   1.806       .  S
C1849      C1850   1.412       .  A
C1849      H1854   1.082       .  S
C1850      C1851   1.422       .  A
C1851      C1852   1.399       .  A
C1851      S1855   1.802       .  S
C1852      H1856   1.085       .  S
S1853      H1858   1.407       .  S
S1855      H1859   1.408       .  S
C1861      C2626   1.402       .  A
C1861      C1866   1.396       .  A
C1861      H1871   1.084       .  S
C1862      C1867   1.487       .  S
C1862      C2625   1.403       .  A
C1862      C1863   1.413       .  A
C1863      C2628   1.403       .  A
C1863      S1868   1.804       .  S
C1864      C2627   1.401       .  A
C1864      C1865   1.406   1_556  A
C1864      H1869   1.084   1_556  S
C1865      C1866   1.415   1_554  A
C1866      S1870   1.804   1_556  S
C1867      C1872   1.409       .  A
C1867      C1876   1.402       .  A
S1868      H1884   1.406       .  S
S1870      H1881   1.407       .  S
C1872      C1873   1.403       .  A
C1872      S1877   1.807       .  S
C1873      C1874   1.407       .  A
C1873      H1878   1.083       .  S
C1874      C1875   1.416       .  A
C1875      C1876   1.404       .  A
C1875      S1879   1.804       .  S
C1876      H1880   1.083       .  S
S1877      H1882   1.407       .  S
S1879      H1883   1.407       .  S
C1885      H1895   1.084   1_556  S
C1886      C1887   1.411       .  A
C1887      C2652   1.401       .  A
C1887      S1892   1.806       .  S
C1888      C2651   1.402       .  A
C1888      C1889   1.409   1_556  A
C1888      H1893   1.083       .  S
C1889      C1890   1.422       .  A
C1890      S1894   1.802       .  S
C1891      C1896   1.412       .  A
C1891      C1900   1.400       .  A
S1892      H1908   1.404       .  S
S1894      H1905   1.408       .  S
C1896      C1897   1.409       .  A
C1896      S1901   1.805       .  S
C1897      C1898   1.405       .  A
C1897      H1902   1.083       .  S
C1898      C1899   1.416       .  A
C1899      C1900   1.394       .  A
C1899      S1903   1.806       .  S
C1900      H1904   1.084       .  S
S1901      H1906   1.407       .  S
S1903      H1907   1.405       .  S
C1909      C1910   1.403   1_545  A
C1909      H1919   1.084   1_545  S
C1910      C1915   1.486       .  S
C1911      C1912   1.400       .  A
C1911      S1916   1.804       .  S
C1912      C1913   1.407       .  A
C1912      H1917   1.084       .  S
C1913      C1914   1.417       .  A
C1914      S1918   1.804       .  S
C1915      C1920   1.412       .  A
C1915      C1924   1.404       .  A
S1918      H1929   1.407       .  S
C1920      C1921   1.405       .  A
C1920      S1925   1.806       .  S
C1921      C1922   1.401       .  A
C1921      H1926   1.083       .  S
C1922      C1923   1.411       .  A
C1923      C1924   1.400       .  A
C1923      S1927   1.804       .  S
C1924      H1928   1.084       .  S
S1925      H1930   1.407       .  S
S1927      H1931   1.405       .  S
C1933      C1934   1.406       .  A
C1933      C1938   1.404       .  A
C1933      H1943   1.084       .  S
C1934      C1939   1.493       .  S
C1934      C1935   1.415       .  A
C1935      C1936   1.404       .  A
C1935      S1940   1.804       .  S
C1936      C1937   1.405       .  A
C1936      H1941   1.084       .  S
C1937      C1938   1.415       .  A
C1938      S1942   1.803       .  S
C1939      C1944   1.411       .  A
C1939      C1948   1.407       .  A
S1940      H1956   1.406       .  S
S1942      H1953   1.407       .  S
C1944      C1945   1.403       .  A
C1944      S1949   1.807       .  S
C1945      C1946   1.405       .  A
C1945      H1950   1.083       .  S
C1946      C1947   1.414       .  A
C1947      C1948   1.406       .  A
C1947      S1951   1.802       .  S
C1948      H1952   1.083       .  S
S1949      H1954   1.407       .  S
S1951      H1955   1.406       .  S
C1957      C1958   1.400       .  A
C1957      C1962   1.407       .  A
C1957      H1967   1.082       .  S
C1958      C1963   1.480   1_655  S
C1958      C1959   1.407       .  A
C1959      C1960   1.394       .  A
C1959      S1964   1.807       .  S
C1960      C1961   1.413       .  A
C1960      H1965   1.073       .  S
C1961      C1962   1.424       .  A
C1962      S1966   1.809       .  S
C1963      C1968   1.408       .  A
C1963      C1972   1.402       .  A
S1964      H1980   1.406   1_655  S
S1966      H1977   1.406       .  S
C1968      C1969   1.402       .  A
C1968      S1973   1.807       .  S
C1969      C1970   1.406       .  A
C1969      H1974   1.083       .  S
C1970      C1971   1.415       .  A
C1971      C1972   1.399       .  A
C1971      S1975   1.802       .  S
C1972      H1976   1.084       .  S
S1973      H1978   1.407       .  S
S1975      H1979   1.407       .  S
C1981      C1982   1.400       .  A
C1981      C1986   1.400       .  A
C1982      C1983   1.412       .  A
C1983      C1984   1.400       .  A
C1983      S1988   1.805       .  S
C1984      C1985   1.407       .  A
C1984      H1989   1.084       .  S
C1985      C1986   1.416       .  A
C1986      S1990   1.802       .  S
C1987      C1992   1.408       .  A
C1987      C1996   1.399       .  A
S1988      H2004   1.404       .  S
S1990      H2001   1.407       .  S
C1992      C1993   1.403       .  A
C1992      S1997   1.806       .  S
C1993      C1994   1.403       .  A
C1993      H1998   1.079       .  S
C1994      C1995   1.415       .  A
C1995      C1996   1.397       .  A
C1995      S1999   1.802       .  S
C1996      H2000   1.084       .  S
S1997      H2002   1.407       .  S
S1999      H2003   1.407       .  S
C2005      C2006   1.402       .  A
C2005      C2010   1.398       .  A
C2005      H2015   1.084       .  S
C2006      C2011   1.478       .  S
C2006      C2007   1.410       .  A
C2007      C2008   1.400       .  A
C2007      S2012   1.803       .  S
C2008      C2009   1.405       .  A
C2008      H2013   1.084       .  S
C2009      C2010   1.416       .  A
C2010      S2014   1.805       .  S
C2011      C2016   1.408       .  A
C2011      C2020   1.402       .  A
S2012      H2028   1.406       .  S
S2014      H2025   1.407       .  S
C2016      C2017   1.400       .  A
C2016      S2021   1.806       .  S
C2017      C2018   1.400       .  A
C2017      H2022   1.080       .  S
C2018      C2019   1.412       .  A
C2019      C2020   1.401       .  A
C2019      S2023   1.803       .  S
C2020      H2024   1.084       .  S
S2021      H2026   1.407       .  S
S2023      H2027   1.405       .  S
C2029      C2030   1.403       .  A
C2029      C2034   1.401       .  A
C2029      H2039   1.084       .  S
C2030      C2031   1.413       .  A
C2031      C2796   1.397       .  A
C2032      C2795   1.399       .  A
C2032      C2797   1.403       .  A
C2032      H2037   1.084       .  S
C2033      C2357   1.481       .  S
C2033      C2796   1.403       .  A
C2033      C2034   1.416       .  A
C2034      S2038   1.800       .  S
C2035      C2040   1.410       .  A
C2035      C2044   1.402       .  A
S2036      H2052   1.406       .  S
S2038      H2049   1.407       .  S
C2040      C2041   1.403       .  A
C2040      S2045   1.805       .  S
C2041      C2042   1.404       .  A
C2041      H2046   1.082       .  S
C2042      C2043   1.415       .  A
C2043      C2044   1.399       .  A
C2043      S2047   1.803       .  S
C2044      H2048   1.084       .  S
S2045      H2050   1.407       .  S
S2047      H2051   1.407       .  S
C2053      C2054   1.404       .  A
C2053      C2058   1.401       .  A
C2053      H2063   1.083       .  S
C2054      C2059   1.487       .  S
C2054      C2055   1.416       .  A
C2055      C2056   1.402       .  A
C2055      S2060   1.803       .  S
C2056      C2057   1.400       .  A
C2056      H2061   1.084       .  S
C2057      C2058   1.409       .  A
C2058      S2062   1.808       .  S
C2059      C2064   1.413       .  A
C2059      C2068   1.402       .  A
S2060      H2076   1.406       .  S
S2062      H2073   1.406       .  S
C2064      C2065   1.403       .  A
C2064      S2069   1.808       .  S
C2065      C2066   1.404       .  A
C2065      H2834   1.083       .  S
C2066      C2358   1.486       .  S
C2066      C2067   1.417       .  A
C2067      C2068   1.402       .  A
C2067      S2071   1.803       .  S
C2068      H2072   1.084       .  S
S2069      H2838   1.407       .  S
H2070      C2829   1.082       .  S
S2071      H2075   1.407       .  S
H2074      S2833   1.407       .  S
C2077      C2078   1.402   1_655  A
C2077      C2082   1.410       .  A
C2077      H2087   1.082       .  S
C2078      C2083   1.492       .  S
C2078      C2079   1.413   1_455  A
C2079      C2080   1.400       .  A
C2079      S2084   1.805   1_655  S
C2080      C2081   1.408       .  A
C2080      H2085   1.083       .  S
C2081      C2082   1.425       .  A
C2082      S2086   1.810       .  S
C2083      C2088   1.407       .  A
C2083      C2092   1.403       .  A
S2084      H2100   1.406       .  S
S2086      H2097   1.406       .  S
C2088      C2089   1.403       .  A
C2088      S2093   1.808       .  S
C2089      C2090   1.414       .  A
C2089      H2094   1.077       .  S
C2090      C2091   1.423       .  A
C2091      C2092   1.410       .  A
C2091      S2095   1.810       .  S
C2092      H2096   1.082       .  S
S2093      H2098   1.407       .  S
S2095      H2099   1.406       .  S
C2101      C2102   1.399       .  A
C2101      C2106   1.406       .  A
C2101      H2111   1.083       .  S
C2102      C2107   1.477       .  S
C2102      C2103   1.407       .  A
C2103      C2104   1.392       .  A
C2103      S2872   1.807       .  S
C2104      C2105   1.411       .  A
C2104      H2109   1.076       .  S
C2105      C2106   1.426       .  A
C2106      S2110   1.811       .  S
C2107      C2112   1.408       .  A
C2107      C2116   1.401       .  A
S2108      C2867   1.807       .  S
S2108      H2888   1.406       .  S
S2110      H2121   1.407       .  S
C2112      C2113   1.402       .  A
C2112      S2117   1.806       .  S
C2113      C2114   1.406       .  A
C2113      H2118   1.083       .  S
C2114      C2115   1.414       .  A
C2115      C2116   1.398       .  A
C2115      S2119   1.801       .  S
C2116      H2120   1.084       .  S
S2117      H2122   1.407       .  S
S2119      H2123   1.407       .  S
H2124      S2872   1.405       .  S
C2125      C2126   1.395       .  A
C2125      C2130   1.398       .  A
C2125      H2135   1.083       .  S
C2126      C2131   1.478       .  S
C2126      C2127   1.407       .  A
C2127      C2128   1.401       .  A
C2127      S2132   1.804       .  S
C2128      C2129   1.415       .  A
C2128      H2133   1.077       .  S
C2129      C2130   1.428       .  A
C2130      S2134   1.809       .  S
C2131      C2136   1.409       .  A
C2131      C2140   1.400       .  A
S2132      H2148   1.405       .  S
S2134      H2145   1.407       .  S
C2136      C2137   1.401       .  A
C2136      S2141   1.808       .  S
C2137      C2138   1.405       .  A
C2137      H2142   1.083       .  S
C2138      C2139   1.416       .  A
C2139      C2140   1.400       .  A
C2139      S2143   1.803       .  S
C2140      H2144   1.084       .  S
S2141      H2146   1.407       .  S
S2143      H2147   1.407       .  S
C2149      C2150   1.401       .  A
C2149      C2154   1.400       .  A
C2149      H2159   1.084       .  S
C2150      C2155   1.482       .  S
C2150      C2151   1.412       .  A
C2151      C2152   1.402       .  A
C2151      S2156   1.805       .  S
C2152      C2153   1.406       .  A
C2152      H2157   1.084       .  S
C2153      C2154   1.417       .  A
C2154      S2158   1.804       .  S
C2155      C2160   1.403       .  A
C2155      C2164   1.398       .  A
S2156      H2172   1.404       .  S
S2158      H2169   1.407       .  S
C2160      C2161   1.401       .  A
C2160      S2165   1.809       .  S
C2161      C2162   1.415       .  A
C2161      H2166   1.073       .  S
C2162      C2163   1.427       .  A
C2163      C2164   1.405       .  A
C2163      S2167   1.809       .  S
C2164      H2168   1.083       .  S
S2165      H2170   1.406       .  S
S2167      H2171   1.407       .  S
C2173      C2174   1.403       .  A
C2173      C2178   1.400       .  A
C2173      H2183   1.084       .  S
C2174      C2179   1.481       .  S
C2174      C2175   1.413       .  A
C2175      C2176   1.401       .  A
C2175      S2180   1.804       .  S
C2176      C2177   1.403       .  A
C2176      H2181   1.083       .  S
C2177      C2335   1.479       .  S
C2177      C2178   1.412       .  A
C2178      S2946   1.804       .  S
C2179      C2184   1.408       .  A
S2180      H2196   1.405       .  S
S2182      C2942   1.804       .  S
S2182      H2193   1.407       .  S
C2184      S2189   1.807       .  S
C2185      C2186   1.407       .  A
C2185      H2190   1.083       .  S
C2186      C2187   1.418       .  A
C2187      C2188   1.401   1_565  A
C2187      S2191   1.803       .  S
C2188      H2192   1.084       .  S
S2189      H2194   1.407       .  S
S2191      H2195   1.407       .  S
C2197      C2198   1.407       .  A
C2197      C2202   1.406       .  A
C2197      H2207   1.084       .  S
C2198      C2203   1.487       .  S
C2198      C2199   1.413       .  A
C2199      C2200   1.397       .  A
C2199      S2204   1.804       .  S
C2200      C2201   1.402       .  A
C2200      H2205   1.084       .  S
C2201      C2330   1.481       .  S
C2201      C2202   1.412       .  A
C2202      S2970   1.804       .  S
C2203      C2208   1.409       .  A
C2203      C2212   1.402       .  A
S2204      H2220   1.406       .  S
S2206      C2966   1.804       .  S
S2206      H2217   1.405       .  S
C2208      C2209   1.408       .  A
C2208      S2213   1.806       .  S
C2209      C2210   1.410       .  A
C2209      H2214   1.082       .  S
C2210      C2211   1.418       .  A
C2211      C2212   1.399       .  A
C2211      S2215   1.803       .  S
C2212      H2216   1.084       .  S
S2213      H2218   1.407       .  S
S2215      H2219   1.408       .  S
C2221      C2222   1.400       .  A
C2221      C2226   1.393       .  A
C2221      H2231   1.084       .  S
C2222      C2227   1.490       .  S
C2222      C2223   1.418       .  A
C2223      C2224   1.407       .  A
C2224      C2225   1.404       .  A
C2224      H2229   1.084       .  S
C2225      C2226   1.416       .  A
C2226      S2230   1.801       .  S
C2227      C2232   1.415       .  A
S2228      H2244   1.406       .  S
S2230      H2241   1.404       .  S
C2232      S2237   1.808       .  S
C2233      C2234   1.403   1_545  A
C2233      H2238   1.083       .  S
C2234      C2235   1.415       .  A
C2235      C2236   1.402       .  A
C2235      S2239   1.803       .  S
C2236      H2240   1.084       .  S
S2237      H2242   1.407       .  S
S2239      H2243   1.407       .  S
C2245      C2246   1.399       .  A
C2245      C2250   1.403       .  A
C2245      H2255   1.083       .  S
C2246      C2251   1.479       .  S
C2246      C2247   1.409       .  A
C2247      C2248   1.399       .  A
C2247      S2252   1.804       .  S
C2248      C2249   1.409       .  A
C2248      H2253   1.084       .  S
C2249      C2250   1.419       .  A
C2250      S2254   1.805       .  S
C2251      C2256   1.410       .  A
C2251      C2260   1.401       .  A
S2252      H2268   1.406       .  S
S2254      H2265   1.406       .  S
C2256      C2257   1.402       .  A
C2256      S2261   1.808       .  S
C2257      C2258   1.404       .  A
C2257      H2262   1.083       .  S
C2258      C2259   1.415       .  A
C2259      C2260   1.399       .  A
C2259      S2263   1.803       .  S
C2260      H2264   1.084       .  S
S2261      H2266   1.407       .  S
S2263      H2267   1.407       .  S
C2269      C2270   1.402       .  A
C2269      C2274   1.401       .  A
C2269      H2279   1.084       .  S
C2270      C2275   1.486       .  S
C2270      C2271   1.413       .  A
C2271      C2272   1.403       .  A
C2271      S2276   1.803       .  S
C2272      C2273   1.404       .  A
C2272      H2277   1.084       .  S
C2273      C2274   1.416       .  A
C2274      S2278   1.805       .  S
C2275      C2280   1.404       .  A
C2275      C2284   1.402       .  A
S2276      H2292   1.406       .  S
S2278      H2289   1.407       .  S
C2280      C2281   1.401       .  A
C2280      S2285   1.809       .  S
C2281      C2282   1.415       .  A
C2281      H2286   1.071       .  S
C2282      C2283   1.424       .  A
C2283      C2284   1.410       .  A
C2283      S2287   1.810       .  S
C2284      H2288   1.082       .  S
S2285      H2290   1.407       .  S
S2287      H2291   1.407       .  S
Zn2293     O2297   1.968       .  S
Zn2293     O2298   2.036       .  S
Zn2293     O2302   2.038       .  S
Zn2293     O2309   2.015       .  S
Zn2294     O2297   1.964       .  S
Zn2294     O2299   2.024       .  S
Zn2294     O2301   2.020       .  S
Zn2294     O2305   2.028       .  S
Zn2295     O2297   1.962       .  S
Zn2295     O2300   2.017       .  S
Zn2295     O2303   2.008       .  S
Zn2295     O2306   2.011       .  S
Zn2296     O2297   1.967       .  S
Zn2296     O2304   2.035       .  S
Zn2296     O2307   2.028       .  S
Zn2296     O2308   2.022       .  S
O2298      C2310   1.276       .  A
O2299      C2311   1.275       .  A
O2300      C2312   1.273       .  A
O2301      C2310   1.274       .  A
O2302      C2312   1.277       .  A
O2303      C2311   1.272       .  A
O2304      C2313   1.275       .  A
O2305      C2314   1.275       .  A
O2306      C2313   1.272       .  A
O2307      C2314   1.275       .  A
O2308      C2315   1.275       .  A
O2309      C2315   1.273       .  A
C2310      C3037   1.483       .  S
C2311      C3022   1.480       .  S
C2312      C2998   1.482       .  S
C2313      C2917   1.489       .  S
C2314      C2974   1.488       .  S
C2315      C2950   1.480       .  S
C2316      C2317   1.537       .  S
C2316      C2322   1.532       .  S
C2316      C2320   1.546       .  S
C2316      C2893   1.544       .  S
C2317      H2324   1.085       .  S
C2317      C2318   1.367       .  D
C2318      C2319   1.541       .  S
C2318      C3013   1.494       .  S
C2319      C2323   1.541       .  S
C2319      C2321   1.553       .  S
C2319      H2325   1.104       .  S
C2320      H2326   1.076       .  S
C2320      C2321   1.375       .  D
C2321      C2333   1.504       .  S
C2322      H2327   1.086       .  S
C2322      C2323   1.360       .  D
C2323      C2989   1.492       .  S
C2328      C2329   1.546       .  S
C2328      C2334   1.537       .  S
C2328      C2332   1.537       .  S
C2328      C2869   1.543       .  S
C2329      H2336   1.080       .  S
C2329      C2330   1.358       .  D
C2330      C2331   1.534       .  S
C2331      C2335   1.536       .  S
C2331      C2333   1.555       .  S
C2331      H2337   1.106       .  S
C2332      H2338   1.082       .  S
C2332      C2333   1.374       .  D
C2334      H2339   1.086       .  S
C2334      C2335   1.363       .  D
Zn2340     O2344   1.963       .  S
Zn2340     O2345   2.016       .  S
Zn2340     O2349   2.012       .  S
Zn2340     O2356   2.015       .  S
Zn2341     O2344   1.963       .  S
Zn2341     O2346   2.033       .  S
Zn2341     O2348   2.022       .  S
Zn2341     O2352   2.034       .  S
Zn2342     O2344   1.960       .  S
Zn2342     O2347   2.021       .  S
Zn2342     O2350   2.023       .  S
Zn2342     O2353   2.008       .  S
Zn2343     O2344   1.967       .  S
Zn2343     O2351   2.033       .  S
Zn2343     O2354   2.019       .  S
Zn2343     O2355   2.032       .  S
O2345      C2357   1.273       .  A
O2346      C2358   1.276       .  A
O2347      C2359   1.274       .  A
O2348      C2357   1.275       .  A
O2349      C2359   1.272       .  A
O2350      C2358   1.274       .  A
O2351      C2360   1.275       .  A
O2352      C2361   1.277       .  A
O2353      C2360   1.273       .  A
O2354      C2361   1.273       .  A
O2355      C2362   1.275       .  A
O2356      C2362   1.273       .  A
C2359      C2878   1.478       .  S
C2360      C2773   1.483       .  S
C2361      C2845   1.497       .  S
C2362      C2749   1.485       .  S
C2363      C2364   1.543       .  S
C2363      C2369   1.540       .  S
C2363      C2367   1.538       .  S
C2363      C2725   1.546       .  S
C2364      H2371   1.080       .  S
C2364      C2365   1.358       .  D
C2365      C2366   1.532       .  S
C2365      C2821   1.477       .  S
C2366      C2370   1.536       .  S
C2366      C2368   1.550       .  S
C2366      H2372   1.107       .  S
C2367      H2373   1.082       .  S
C2367      C2368   1.376       .  D
C2368      C2380   1.501       .  S
C2369      H2374   1.086       .  S
C2369      C2370   1.365       .  D
C2370      C2806   1.484       .  S
C2375      C2376   1.547       .  S
C2375      C2381   1.535       .  S
C2375      C2379   1.542       .  S
C2375      C2926   1.549       .  S
C2376      H2383   1.076       .  S
C2376      C2377   1.363       .  D
C2377      C2378   1.538       .  S
C2377      C2782   1.483       .  S
C2378      C2382   1.540       .  S
C2378      C2380   1.548       .  S
C2378      H2384   1.105       .  S
C2379      H2385   1.082       .  S
C2379      C2380   1.375       .  D
C2381      H2386   1.085       .  S
C2381      C2382   1.365       .  D
C2382      C2758   1.493       .  S
Zn2387     O2391   1.966       .  S
Zn2387     O2392   2.020       .  S
Zn2387     O2396   2.041       .  S
Zn2387     O2403   2.025       .  S
Zn2388     O2391   1.965       .  S
Zn2388     O2393   2.017       .  S
Zn2388     O2395   2.021       .  S
Zn2388     O2399   2.030       .  S
Zn2389     O2391   1.967       .  S
Zn2389     O2394   2.048       .  S
Zn2389     O2397   2.030       .  S
Zn2389     O2400   2.031       .  S
Zn2390     O2391   1.965       .  S
Zn2390     O2398   2.030       .  S
Zn2390     O2401   2.031       .  S
Zn2390     O2402   2.016       .  S
O2392      C2404   1.274       .  A
O2393      C2405   1.274       .  A
O2394      C2406   1.276       .  A
O2395      C2404   1.274       .  A
O2396      C2406   1.277       .  A
O2397      C2405   1.276       .  A
O2398      C2407   1.275       .  A
O2399      C2408   1.274       .  A
O2400      C2407   1.275       .  A
O2401      C2408   1.276       .  A
O2402      C2409   1.274       .  A
O2403      C2409   1.274       .  A
C2404      C2902   1.480       .  S
C2405      C2677   1.481       .  S
C2406      C2701   1.490       .  S
C2407      C2614   1.496       .  S
C2408      C2653   1.497       .  S
C2409      C2629   1.482       .  S
C2410      C2411   1.547       .  S
C2410      C2416   1.540       .  S
C2410      C2414   1.536       .  S
C2410      C3046   1.548       .  S
C2411      H2418   1.080       .  S
C2411      C2412   1.361       .  D
C2412      C2413   1.533       .  S
C2412      C2686   1.478       .  S
C2413      C2417   1.544       .  S
C2413      C2415   1.553       .  S
C2413      H2419   1.106       .  S
C2414      H2420   1.082       .  S
C2414      C2415   1.373       .  D
C2415      C2427   1.502       .  S
C2416      H2421   1.086       .  S
C2416      C2417   1.365       .  D
C2417      C2710   1.497       .  S
C2422      C2423   1.534       .  S
C2422      C2428   1.548       .  S
C2422      C2426   1.536       .  S
C2422      C2581   1.545       .  S
C2423      H2430   1.086       .  S
C2423      C2424   1.362       .  D
C2424      C2425   1.544       .  S
C2424      C2662   1.492       .  S
C2425      C2429   1.535       .  S
C2425      C2427   1.553       .  S
C2425      H2431   1.105       .  S
C2426      H2432   1.082       .  S
C2426      C2427   1.373       .  D
C2428      H2433   1.080       .  S
C2428      C2429   1.364       .  D
C2429      C2638   1.486       .  S
Zn2434     O2438   1.964       .  S
Zn2434     O2439   2.018       .  S
Zn2434     O2443   2.025       .  S
Zn2434     O2450   2.025       .  S
Zn2435     O2438   1.969       .  S
Zn2435     O2440   2.040       .  S
Zn2435     O2442   2.026       .  S
Zn2435     O2446   2.032       .  S
Zn2436     O2438   1.962       .  S
Zn2436     O2441   2.017       .  S
Zn2436     O2444   2.026       .  S
Zn2436     O2447   2.007       .  S
Zn2437     O2438   1.962       .  S
Zn2437     O2445   2.014       .  S
Zn2437     O2448   2.023       .  S
Zn2437     O2449   2.029       .  S
O2439      C2451   1.274       .  A
O2440      C2452   1.275       .  A
O2441      C2453   1.273       .  A
O2442      C2451   1.276       .  A
O2443      C2453   1.274       .  A
O2444      C2452   1.276       .  A
O2445      C2454   1.273       .  A
O2446      C2455   1.276       .  A
O2447      C2454   1.272       .  A
O2448      C2455   1.274       .  A
O2449      C2456   1.276       .  A
O2450      C2456   1.273       .  A
C2451      C2557   1.490       .  S
C2452      C2533   1.497       .  S
C2453      C2734   1.482       .  S
C2454      C2485   1.473       .  S
C2455      C2590   1.485       .  S
C2456      C2509   1.495       .  S
C2457      C2458   1.536       .  S
C2457      C2463   1.547       .  S
C2457      C2461   1.538       .  S
C2457      C2854   1.543       .  S
C2458      H2465   1.086       .  S
C2458      C2459   1.360       .  D
C2459      C2460   1.535       .  S
C2459      C2566   1.473       .  S
C2460      C2464   1.536       .  S
C2460      C2462   1.546       .  S
C2460      H2466   1.107       .  S
C2461      H2467   1.083       .  S
C2461      C2462   1.374       .  D
C2462      C2474   1.497       .  S
C2463      H2468   1.083       .  S
C2463      C2464   1.365       .  D
C2464      C2542   1.489       .  S
C2469      C2470   1.544       .  S
C2469      C2475   1.541       .  S
C2469      C2473   1.540       .  S
C2469      C2605   1.550       .  S
C2470      H2477   1.086       .  S
C2470      C2471   1.353       .  D
C2471      C2472   1.531       .  S
C2471      C2518   1.474       .  S
C2472      C2476   1.535       .  S
C2472      C2474   1.545       .  S
C2472      H2478   1.108       .  S
C2473      H2479   1.084       .  S
C2473      C2474   1.374       .  D
C2475      H2480   1.086       .  S
C2475      C2476   1.369       .  D
C2476      C2494   1.485       .  S
C2481      C2482   1.403       .  A
C2481      C2486   1.400       .  A
C2481      H2491   1.084       .  S
C2482      C2487   1.481       .  S
C2482      C2483   1.413       .  A
C2483      C2484   1.397       .  A
C2483      S2488   1.804       .  S
C2484      C2485   1.402       .  A
C2484      H2489   1.084       .  S
C2485      C2486   1.414       .  A
C2486      S2490   1.805       .  S
C2487      C2492   1.409       .  A
C2487      C2496   1.404       .  A
S2488      H2504   1.406       .  S
S2490      H2501   1.407       .  S
C2492      C2493   1.400       .  A
C2492      S2497   1.808       .  S
C2493      C2494   1.405       .  A
C2493      H2498   1.081       .  S
C2494      C2495   1.412       .  A
C2495      C2496   1.400       .  A
C2495      S2499   1.803       .  S
C2496      H2500   1.084       .  S
S2497      H2502   1.407       .  S
S2499      H2503   1.407       .  S
C2505      C2506   1.400       .  A
C2505      H2515   1.084       .  S
C2506      C2511   1.479       .  S
C2507      C2508   1.398   1_545  A
C2507      S2512   1.805       .  S
C2508      C2509   1.407       .  A
C2508      H2513   1.083       .  S
C2509      C2510   1.422       .  A
C2510      S2514   1.802       .  S
C2511      C2516   1.410       .  A
C2511      C2520   1.399       .  A
S2514      H2525   1.408       .  S
C2516      C2517   1.405       .  A
C2516      S2521   1.805       .  S
C2517      C2518   1.402       .  A
C2517      H2522   1.084       .  S
C2518      C2519   1.417       .  A
C2519      C2520   1.395       .  A
C2519      S2523   1.809       .  S
C2520      H2524   1.084       .  S
S2521      H2526   1.407       .  S
S2523      H2527   1.397       .  S
C2529      C2530   1.402       .  A
C2529      C2534   1.405       .  A
C2529      H2539   1.084       .  S
C2530      C2535   1.484       .  S
C2530      C2531   1.412       .  A
C2531      C2532   1.399       .  A
C2531      S2536   1.806       .  S
C2532      C2533   1.408       .  A
C2532      H2537   1.084       .  S
C2533      C2534   1.421       .  A
C2534      S2538   1.799       .  S
C2535      C2540   1.409       .  A
S2536      H2552   1.403       .  S
S2538      H2549   1.408       .  S
C2540      S2545   1.805       .  S
C2541      C2542   1.405       .  A
C2541      H2546   1.080       .  S
C2542      C2543   1.415       .  A
C2543      C2544   1.400       .  A
C2543      S2547   1.804       .  S
S2545      H2550   1.407       .  S
S2547      H2551   1.407       .  S
C2553      C2554   1.401       .  A
C2553      H2563   1.083       .  S
C2554      C2559   1.484       .  S
C2555      C2556   1.401       .  A
C2556      C2557   1.409       .  A
C2556      H2561   1.084       .  S
C2557      C2558   1.418       .  A
C2558      S2562   1.809       .  S
C2559      C2564   1.411       .  A
S2562      H2573   1.406   1_565  S
C2564      S2569   1.807       .  S
C2565      C2566   1.400       .  A
C2565      H2570   1.082       .  S
C2566      C2567   1.412       .  A
C2567      C2568   1.400       .  A
C2567      S2571   1.803       .  S
C2568      H2572   1.084       .  S
S2569      H2574   1.407       .  S
S2571      H2575   1.403       .  S
C2577      C2578   1.401       .  A
C2577      C2582   1.408       .  A
C2577      H2587   1.083       .  S
C2578      C2583   1.485       .  S
C2578      C2579   1.408       .  A
C2579      C2580   1.397       .  A
C2579      S2584   1.806       .  S
C2580      C2581   1.413       .  A
C2580      H2585   1.075       .  S
C2581      C2582   1.425       .  A
C2582      S2586   1.811       .  S
C2583      C2588   1.410       .  A
C2583      C2592   1.401       .  A
S2584      H2600   1.406       .  S
S2586      H2597   1.406       .  S
C2588      C2589   1.405       .  A
C2588      S2593   1.807       .  S
C2589      C2590   1.406       .  A
C2589      H2594   1.083       .  S
C2590      C2591   1.418       .  A
C2591      C2592   1.401       .  A
C2591      S2595   1.803       .  S
C2592      H2596   1.084       .  S
S2593      H2598   1.407       .  S
S2595      H2599   1.407       .  S
C2601      C2602   1.403       .  A
C2601      C2606   1.412       .  A
C2601      H2611   1.084       .  S
C2602      C2607   1.488       .  S
C2602      C2603   1.406       .  A
C2603      C2604   1.391       .  A
C2603      S2608   1.807       .  S
C2604      C2605   1.414       .  A
C2604      H2609   1.084       .  S
C2605      C2606   1.427       .  A
C2606      S2610   1.811       .  S
C2607      C2612   1.408       .  A
C2607      C2616   1.401       .  A
S2608      H2624   1.406       .  S
S2610      H2621   1.406       .  S
C2612      C2613   1.408       .  A
C2612      S2617   1.806       .  S
C2613      C2614   1.412       .  A
C2613      H2618   1.082       .  S
C2614      C2615   1.420       .  A
C2615      C2616   1.399       .  A
C2615      S2619   1.802       .  S
C2616      H2620   1.085       .  S
S2617      H2622   1.407       .  S
S2619      H2623   1.408       .  S
C2625      C2630   1.397       .  A
C2625      H2635   1.084       .  S
C2626      C2631   1.480       .  S
C2626      C2627   1.412       .  A
C2627      S2632   1.804       .  S
C2628      C2629   1.407       .  A
C2628      H2633   1.084       .  S
C2629      C2630   1.414       .  A
C2630      S2634   1.804       .  S
C2631      C2636   1.408       .  A
C2631      C2640   1.402       .  A
S2632      H2648   1.406       .  S
S2634      H2645   1.407       .  S
C2636      C2637   1.401       .  A
C2636      S2641   1.807       .  S
C2637      C2638   1.406       .  A
C2637      H2642   1.083       .  S
C2638      C2639   1.413       .  A
C2639      C2640   1.402       .  A
C2639      S2643   1.804       .  S
C2640      H2644   1.083       .  S
S2641      H2646   1.407       .  S
S2643      H2647   1.406       .  S
C2649      H2659   1.084       .  S
C2650      C2651   1.411       .  A
C2651      S2656   1.805       .  S
C2652      C2653   1.409       .  A
C2652      H2657   1.083       .  S
C2653      C2654   1.422       .  A
C2654      S2658   1.802       .  S
C2655      C2660   1.411       .  A
C2655      C2664   1.398       .  A
S2656      H2672   1.403       .  S
S2658      H2669   1.408       .  S
C2660      C2661   1.411       .  A
C2660      S2665   1.804       .  S
C2661      C2662   1.406       .  A
C2661      H2666   1.083       .  S
C2662      C2663   1.419       .  A
C2663      C2664   1.397       .  A
C2663      S2667   1.806       .  S
C2664      H2668   1.084       .  S
S2665      H2670   1.407       .  S
S2667      H2671   1.405       .  S
C2673      C2674   1.403       .  A
C2673      H2683   1.084       .  S
C2674      C2679   1.487       .  S
C2675      C2676   1.402       .  A
C2675      S2680   1.805       .  S
C2676      C2677   1.405       .  A
C2676      H2681   1.084       .  S
C2677      C2678   1.415       .  A
C2678      S2682   1.804       .  S
C2679      C2684   1.413       .  A
C2679      C2688   1.404       .  A
S2682      H2693   1.407       .  S
C2684      C2685   1.404       .  A
C2684      S2689   1.806       .  S
C2685      C2686   1.400       .  A
C2685      H2690   1.083       .  S
C2686      C2687   1.411       .  A
C2687      C2688   1.401       .  A
C2687      S2691   1.803       .  S
C2688      H2692   1.084       .  S
S2689      H2694   1.407       .  S
S2691      H2695   1.406       .  S
C2697      C2698   1.406       .  A
C2697      C2702   1.404       .  A
C2697      H2707   1.084       .  S
C2698      C2703   1.498       .  S
C2698      C2699   1.417       .  A
C2699      C2700   1.407       .  A
C2699      S2704   1.804       .  S
C2700      C2701   1.406       .  A
C2700      H2705   1.084       .  S
C2701      C2702   1.415       .  A
C2702      S2706   1.803       .  S
C2703      C2708   1.413       .  A
C2703      C2712   1.407       .  A
S2704      H2720   1.406       .  S
S2706      H2717   1.407       .  S
C2708      C2709   1.406       .  A
C2708      S2713   1.807       .  S
C2709      C2710   1.406       .  A
C2709      H2714   1.083       .  S
C2710      C2711   1.415       .  A
C2711      C2712   1.408       .  A
C2711      S2715   1.802       .  S
C2712      H2716   1.084       .  S
S2713      H2718   1.407       .  S
S2715      H2719   1.406       .  S
C2721      C2722   1.402       .  A
C2721      C2726   1.408       .  A
C2721      H2731   1.083       .  S
C2722      C2727   1.483   1_655  S
C2722      C2723   1.407       .  A
C2723      C2724   1.395       .  A
C2723      S2728   1.806       .  S
C2724      C2725   1.414       .  A
C2724      H2729   1.075       .  S
C2725      C2726   1.424       .  A
C2726      S2730   1.809       .  S
C2727      C2732   1.410       .  A
C2727      C2736   1.402       .  A
S2728      H2744   1.406   1_655  S
S2730      H2741   1.406       .  S
C2732      C2733   1.405       .  A
C2732      S2737   1.806       .  S
C2733      C2734   1.407       .  A
C2733      H2738   1.083       .  S
C2734      C2735   1.414       .  A
C2735      C2736   1.399       .  A
C2735      S2739   1.802       .  S
C2736      H2740   1.084       .  S
S2737      H2742   1.407       .  S
S2739      H2743   1.407       .  S
C2745      C2746   1.402       .  A
C2745      C2750   1.402       .  A
C2746      C2747   1.412       .  A
C2747      C2748   1.400       .  A
C2747      S2752   1.804       .  S
C2748      C2749   1.406       .  A
C2748      H2753   1.084       .  S
C2749      C2750   1.416       .  A
C2750      S2754   1.802       .  S
C2751      C2756   1.407       .  A
C2751      C2760   1.400       .  A
S2752      H2768   1.406       .  S
S2754      H2765   1.407       .  S
C2756      C2757   1.403       .  A
C2756      S2761   1.806       .  S
C2757      C2758   1.405       .  A
C2757      H2762   1.074       .  S
C2758      C2759   1.417       .  A
C2759      C2760   1.398       .  A
C2759      S2763   1.802       .  S
C2760      H2764   1.084       .  S
S2761      H2766   1.406       .  S
S2763      H2767   1.407       .  S
C2769      C2770   1.400       .  A
C2769      C2774   1.397       .  A
C2769      H2779   1.084       .  S
C2770      C2775   1.479       .  S
C2770      C2771   1.411       .  A
C2771      C2772   1.403       .  A
C2771      S2776   1.803       .  S
C2772      C2773   1.407       .  A
C2772      H2777   1.084       .  S
C2773      C2774   1.417       .  A
C2774      S2778   1.805       .  S
C2775      C2780   1.407       .  A
C2775      C2784   1.402       .  A
S2776      H2792   1.405       .  S
S2778      H2789   1.407       .  S
C2780      C2781   1.402       .  A
C2780      S2785   1.806       .  S
C2781      C2782   1.402       .  A
C2781      H2786   1.075       .  S
C2782      C2783   1.414       .  A
C2783      C2784   1.401       .  A
C2783      S2787   1.804       .  S
C2784      H2788   1.083       .  S
S2785      H2790   1.407       .  S
S2787      H2791   1.406       .  S
C2793      C2794   1.403       .  A
C2793      C2798   1.402       .  A
C2793      H2803   1.084       .  S
C2794      C2795   1.413       .  A
C2796      H2801   1.084       .  S
C2797      C2798   1.416       .  A
C2798      S2802   1.802       .  S
C2799      C2804   1.411       .  A
C2799      C2808   1.403       .  A
S2800      H2816   1.406       .  S
S2802      H2813   1.407       .  S
C2804      C2805   1.404       .  A
C2804      S2809   1.806       .  S
C2805      C2806   1.404       .  A
C2805      H2810   1.082       .  S
C2806      C2807   1.413       .  A
C2807      C2808   1.399       .  A
C2807      S2811   1.803       .  S
C2808      H2812   1.084       .  S
S2809      H2814   1.407       .  S
S2811      H2815   1.407       .  S
C2817      C2818   1.402       .  A
C2817      C2822   1.399       .  A
C2817      H2827   1.083       .  S
C2818      C2823   1.482       .  S
C2818      C2819   1.415       .  A
C2819      C2820   1.402       .  A
C2819      S2824   1.804       .  S
C2820      C2821   1.400       .  A
C2820      H2825   1.084       .  S
C2821      C2822   1.411       .  A
C2822      S2826   1.809       .  S
C2823      C2828   1.410       .  A
C2823      C2832   1.399       .  A
S2824      H2840   1.405       .  S
S2826      H2837   1.406       .  S
C2828      C2829   1.403       .  A
C2828      S2833   1.808       .  S
C2829      C2830   1.407   1_556  A
C2830      C2831   1.421   1_554  A
C2831      C2832   1.400       .  A
C2831      S2835   1.802   1_556  S
C2832      H2836   1.084       .  S
S2835      H2839   1.408       .  S
C2841      C2842   1.400   1_655  A
C2841      C2846   1.407       .  A
C2841      H2851   1.083       .  S
C2842      C2847   1.486       .  S
C2842      C2843   1.411   1_455  A
C2843      C2844   1.399       .  A
C2843      S2848   1.805   1_655  S
C2844      C2845   1.408       .  A
C2844      H2849   1.083       .  S
C2845      C2846   1.424       .  A
C2846      S2850   1.809       .  S
C2847      C2852   1.405       .  A
C2847      C2856   1.401       .  A
S2848      H2864   1.406       .  S
S2850      H2861   1.406       .  S
C2852      C2853   1.401       .  A
C2852      S2857   1.807       .  S
C2853      C2854   1.413       .  A
C2853      H2858   1.078       .  S
C2854      C2855   1.424       .  A
C2855      C2856   1.408       .  A
C2855      S2859   1.810       .  S
C2856      H2860   1.082       .  S
S2857      H2862   1.407       .  S
S2859      H2863   1.406       .  S
C2865      C2866   1.401       .  A
C2865      C2870   1.408       .  A
C2865      H2875   1.083       .  S
C2866      C2871   1.479       .  S
C2866      C2867   1.406       .  A
C2867      C2868   1.393       .  A
C2868      C2869   1.413       .  A
C2868      H2873   1.074       .  S
C2869      C2870   1.425       .  A
C2870      S2874   1.810       .  S
C2871      C2876   1.409       .  A
C2871      C2880   1.400       .  A
S2874      H2885   1.406       .  S
C2876      C2877   1.404       .  A
C2876      S2881   1.806       .  S
C2877      C2878   1.405       .  A
C2877      H2882   1.083       .  S
C2878      C2879   1.414       .  A
C2879      C2880   1.397       .  A
C2879      S2883   1.801       .  S
C2880      H2884   1.084       .  S
S2881      H2886   1.407       .  S
S2883      H2887   1.407       .  S
C2889      C2890   1.395       .  A
C2889      C2894   1.399       .  A
C2889      H2899   1.083       .  S
C2890      C2895   1.483       .  S
C2890      C2891   1.409       .  A
C2891      C2892   1.404       .  A
C2891      S2896   1.804       .  S
C2892      C2893   1.415       .  A
C2892      H2897   1.075       .  S
C2893      C2894   1.429       .  A
C2894      S2898   1.810       .  S
C2895      C2900   1.412       .  A
C2895      C2904   1.401       .  A
S2896      H2912   1.405       .  S
S2898      H2909   1.406       .  S
C2900      C2901   1.403       .  A
C2900      S2905   1.808       .  S
C2901      C2902   1.404       .  A
C2901      H2906   1.083       .  S
C2902      C2903   1.416       .  A
C2903      C2904   1.401       .  A
C2903      S2907   1.804       .  S
C2904      H2908   1.084       .  S
S2905      H2910   1.407       .  S
S2907      H2911   1.407       .  S
C2913      C2914   1.401       .  A
C2913      C2918   1.399       .  A
C2913      H2923   1.084       .  S
C2914      C2919   1.482       .  S
C2914      C2915   1.413       .  A
C2915      C2916   1.404       .  A
C2915      S2920   1.805       .  S
C2916      C2917   1.408       .  A
C2916      H2921   1.084       .  S
C2917      C2918   1.418       .  A
C2918      S2922   1.804       .  S
C2919      C2924   1.402       .  A
C2919      C2928   1.398       .  A
S2920      H2936   1.402       .  S
S2922      H2933   1.408       .  S
C2924      C2925   1.405       .  A
C2924      S2929   1.809       .  S
C2925      C2926   1.418       .  A
C2925      H2930   1.064       .  S
C2926      C2927   1.426       .  A
C2927      C2928   1.406       .  A
C2927      S2931   1.808       .  S
C2928      H2932   1.082       .  S
S2929      H2934   1.406       .  S
S2931      H2935   1.407       .  S
C2937      C2938   1.404   1_554  A
C2937      C2942   1.400       .  A
C2937      H2947   1.084       .  S
C2938      C2943   1.488       .  S
C2938      C2939   1.415       .  A
C2939      C2940   1.403       .  A
C2939      S2944   1.804       .  S
C2940      C2941   1.403   1_556  A
C2940      H2945   1.084       .  S
C2941      C2942   1.412       .  A
C2943      C2948   1.411       .  A
S2944      H2960   1.406       .  S
S2946      H2957   1.407       .  S
C2948      S2953   1.808       .  S
C2949      C2950   1.404       .  A
C2949      H2954   1.083       .  S
C2950      C2951   1.417       .  A
C2951      C2952   1.401   1_565  A
C2951      S2955   1.803       .  S
C2952      H2956   1.084       .  S
S2953      H2958   1.407       .  S
S2955      H2959   1.407       .  S
C2961      C2962   1.407       .  A
C2961      C2966   1.405   1_556  A
C2961      H2971   1.084   1_556  S
C2962      C2967   1.488       .  S
C2962      C2963   1.413       .  A
C2963      C2964   1.398       .  A
C2963      S2968   1.804       .  S
C2964      C2965   1.402   1_556  A
C2964      H2969   1.084       .  S
C2965      C2966   1.412       .  A
C2967      C2972   1.410       .  A
C2967      C2976   1.403       .  A
S2968      H2984   1.406       .  S
S2970      H2981   1.405       .  S
C2972      C2973   1.408       .  A
C2972      S2977   1.806       .  S
C2973      C2974   1.408       .  A
C2973      H2978   1.082       .  S
C2974      C2975   1.416       .  A
C2975      C2976   1.399       .  A
C2975      S2979   1.804       .  S
C2976      H2980   1.084       .  S
S2977      H2982   1.407       .  S
S2979      H2983   1.407       .  S
C2985      C2986   1.399       .  A
C2985      C2990   1.393       .  A
C2985      H2995   1.084       .  S
C2986      C2991   1.488       .  S
C2986      C2987   1.416       .  A
C2987      C2988   1.407       .  A
C2988      C2989   1.406       .  A
C2988      H2993   1.084       .  S
C2989      C2990   1.417       .  A
C2990      S2994   1.800       .  S
C2991      C2996   1.414       .  A
S2992      H3008   1.406       .  S
S2994      H3005   1.406       .  S
C2996      S3001   1.808       .  S
C2997      C2998   1.403   1_545  A
C2997      H3002   1.083       .  S
C2998      C2999   1.416       .  A
C2999      C3000   1.403       .  A
C2999      S3003   1.803       .  S
C3000      H3004   1.084       .  S
S3001      H3006   1.407       .  S
S3003      H3007   1.407       .  S
C3009      C3010   1.399       .  A
C3009      C3014   1.403       .  A
C3009      H3019   1.083       .  S
C3010      C3015   1.480       .  S
C3010      C3011   1.409       .  A
C3011      C3012   1.399       .  A
C3011      S3016   1.803       .  S
C3012      C3013   1.408       .  A
C3012      H3017   1.084       .  S
C3013      C3014   1.418       .  A
C3014      S3018   1.804       .  S
C3015      C3020   1.410       .  A
C3015      C3024   1.401       .  A
S3016      H3032   1.405       .  S
S3018      H3029   1.406       .  S
C3020      C3021   1.402       .  A
C3020      S3025   1.807       .  S
C3021      C3022   1.404       .  A
C3021      H3026   1.083       .  S
C3022      C3023   1.417       .  A
C3023      C3024   1.400       .  A
C3023      S3027   1.803       .  S
C3024      H3028   1.084       .  S
S3025      H3030   1.407       .  S
S3027      H3031   1.407       .  S
C3033      C3034   1.402       .  A
C3033      C3038   1.399       .  A
C3033      H3043   1.084       .  S
C3034      C3039   1.487       .  S
C3034      C3035   1.415       .  A
C3035      C3036   1.404       .  A
C3035      S3040   1.805       .  S
C3036      C3037   1.406       .  A
C3036      H3041   1.084       .  S
C3037      C3038   1.414       .  A
C3038      S3042   1.804       .  S
C3039      C3044   1.406       .  A
C3039      C3048   1.402       .  A
S3040      H3056   1.405       .  S
S3042      H3053   1.407       .  S
C3044      C3045   1.402       .  A
C3044      S3049   1.809       .  S
C3045      C3046   1.415       .  A
C3045      H3050   1.071       .  S
C3046      C3047   1.424       .  A
C3047      C3048   1.408       .  A
C3047      S3051   1.811       .  S
C3048      H3052   1.082       .  S
S3049      H3054   1.406       .  S
S3051      H3055   1.406       .  S
