geometry optimzed in LAMMPS
_audit_creation_date              2020-11-30 
_audit_creation_method            'lammps2cif' 
_symmetry_space_group_name_H-M    'P1' 
_symmetry_Int_Tables_number       1 
_symmetry_cell_setting            triclinic 
loop_ 
_symmetry_equiv_pos_as_xyz 
  x,y,z 
_cell_length_a                    26.66105414 
_cell_length_b                    25.942711260148418 
_cell_length_c                    25.8315824707533 
_cell_angle_alpha                 89.72290941042702 
_cell_angle_beta                  89.87405585292764 
_cell_angle_gamma                 88.66922303994559 
loop_ 
_atom_site_label 
_atom_site_type_symbol 
_atom_site_fract_x 
_atom_site_fract_y 
_atom_site_fract_z 
_atom_site_charge 
O1          O  0.97807057  0.47993727  0.88207605    -0.78500
C2          C  0.00144714  0.36573278  0.00472926     0.82600
O3          O  0.88501422  0.54306880  0.02515210    -0.79600
O4          O  0.03628916  0.48880862  0.11618479    -0.81100
O5          O  0.12541359  0.53624463  0.96759848    -0.80900
O6          O  0.03517897  0.54172985  0.87913247    -0.79500
Zn7        Zn  0.96341510  0.46642431  0.95564073     1.55700
O8          O  0.12283755  0.47271151  0.02561243    -0.80900
Cd9        Cd  0.05049249  0.55493237  0.95500304     1.59700
Cd10       Cd  0.95977366  0.55832721  0.03551486     1.59600
O11         O  0.03854485  0.63330453  0.96765488    -0.80900
O12         O  0.00491630  0.51072198  0.99627652    -1.91400
Cd13       Cd  0.04756385  0.46594028  0.04170293     1.59900
O14         O  0.96955915  0.63445794  0.01635024    -0.80900
O15         O  0.03075208  0.38859138  0.03550057    -0.79500
C16         C  0.86398602  0.51141028  0.99521269     0.83000
C17         C  0.00570489  0.51079194  0.85720226     0.82700
O18         O  0.97525053  0.39074745  0.97150579    -0.78500
C19         C  0.14734619  0.50232274  0.99592443     0.83500
O20         O  0.88968171  0.48087493  0.96664953    -0.78600
C21         C  0.00313355  0.65768436  0.99084578     0.83600
C22         C  0.00695632  0.52198361  0.13719406     0.84000
O23         O  0.97605618  0.55027966  0.11182748    -0.81000
O24         O  0.02706328  0.62450165  0.52495561    -0.78500
C25         C  0.00188669  0.50216820  0.63729674     0.82600
O26         O  0.11635254  0.47073979  0.46593595    -0.79600
O27         O  0.96836468  0.38184605  0.52453954    -0.81100
O28         O  0.87588350  0.53154837  0.46868251    -0.80900
O29         O  0.95907166  0.62759363  0.47521748    -0.79500
Zn30       Zn  0.04077318  0.54827982  0.53789917     1.55700
O31         O  0.87996374  0.47236721  0.53131890    -0.80900
Cd32       Cd  0.95041983  0.55033074  0.45787645     1.59700
Cd33       Cd  0.04098352  0.45977175  0.45327108     1.59600
O34         O  0.96720256  0.54128955  0.38147011    -0.80900
O35         O  0.99759891  0.50483291  0.49781664    -1.91400
Cd36       Cd  0.95574500  0.45870356  0.54067451     1.59900
O37         O  0.02733177  0.47960970  0.37829913    -0.80900
O38         O  0.97269561  0.47065221  0.61595882    -0.79500
C39         C  0.13851462  0.50129247  0.49618054     0.83000
C40         C  0.99309649  0.65004536  0.50062445     0.82700
O41         O  0.02815564  0.53379865  0.61182528    -0.78500
C42         C  0.85483144  0.50062122  0.49995060     0.83500
O43         O  0.11433350  0.53241420  0.52548238    -0.78600
C44         C  0.99772219  0.51218512  0.35660021     0.83600
C45         C  0.99743565  0.35812691  0.49312832     0.84000
O46         O  0.02752898  0.38191715  0.46356435    -0.81000
O47         O  0.53339699  0.61061253  0.03583223    -0.78500
C48         C  0.50574364  0.48761487  0.14240598     0.82600
O49         O  0.62664024  0.46143521  0.97208762    -0.79600
O50         O  0.47800176  0.36776456  0.02860661    -0.81100
O51         O  0.38765921  0.52508563  0.97480734    -0.80900
O52         O  0.47482933  0.61411088  0.97516868    -0.79500
Zn53       Zn  0.54889892  0.53457749  0.04571390     1.55700
O54         O  0.38759687  0.45939687  0.03030792    -0.80900
Cd55       Cd  0.46266710  0.53732743  0.96161183     1.59700
Cd56       Cd  0.55198174  0.44673601  0.96042981     1.59600
O57         O  0.47645904  0.52327037  0.88579845    -0.80900
O58         O  0.50731394  0.49146541  0.00347317    -1.91400
Cd59       Cd  0.46312370  0.44488036  0.04318127     1.59900
O60         O  0.53701108  0.46218037  0.88485415    -0.80900
O61         O  0.47609833  0.45788770  0.11912654    -0.79500
C62         C  0.64808748  0.49285159  0.00197889     0.83000
C63         C  0.50348473  0.63648006  0.00678277     0.82700
O64         O  0.53508172  0.51783185  0.11892927    -0.78500
C65         C  0.36433964  0.49298921  0.00280214     0.83500
O66         O  0.62283756  0.52266234  0.03178594    -0.78600
C67         C  0.50684412  0.49330331  0.86194002     0.83600
C68         C  0.51006001  0.34422416  0.00008123     0.84000
O69         O  0.54100884  0.36906699  0.97264384    -0.81000
O70         O  0.52921850  0.61160698  0.52884790    -0.78500
C71         C  0.49910282  0.49116757  0.64225030     0.82600
O72         O  0.61735503  0.45957461  0.47244911    -0.79600
O73         O  0.46837819  0.36965003  0.53285047    -0.81100
O74         O  0.37847877  0.52560106  0.47415147    -0.80900
O75         O  0.46706070  0.61527106  0.47183094    -0.78700
Zn76       Zn  0.54070417  0.53583360  0.54373762     1.55700
O77         O  0.37839651  0.46217755  0.53242401    -0.80900
Cd78       Cd  0.45367539  0.53790184  0.46043471     1.59700
Cd79       Cd  0.54247153  0.44583274  0.46149039     1.59600
O80         O  0.46772764  0.52207781  0.38470810    -0.80900
O81         O  0.49818737  0.49227782  0.50322169    -1.91400
Cd82       Cd  0.45402132  0.44717013  0.54495784     1.59900
O83         O  0.52724350  0.45968130  0.38589824    -0.80900
O84         O  0.46945667  0.46028434  0.62059040    -0.79500
C85         C  0.63901028  0.48995222  0.50323567     0.83000
C86         C  0.49923167  0.63740662  0.49991881     0.82700
O87         O  0.52643233  0.52225690  0.61735650    -0.78500
C88         C  0.35514924  0.49464382  0.50353500     0.83500
O89         O  0.61420469  0.52034069  0.53268043    -0.78600
C90         C  0.49742821  0.49042406  0.36204358     0.83600
C91         C  0.50125068  0.34524821  0.50616597     0.84000
O92         O  0.53212129  0.36853472  0.47713695    -0.81000
N93         N  0.99180353  0.95740110  0.94218595    -0.36600
N94         N  0.99008171  0.95417916  0.05793691    -0.57200
N95         N  0.98811538  0.06480308  0.06015610    -0.36600
N96         N  0.99575065  0.06776162  0.94430842    -0.57200
C97         C  0.00146962  0.90673205  0.95116476     0.27000
C98         C  0.00117087  0.96656195  0.89125012     0.27000
C99         C  0.99304207  0.05491481  0.11176036     0.27000
C100        C  0.99797234  0.11520148  0.05216397     0.27000
C101        C  0.98492257  0.90360650  0.04733708     0.35600
C102        C  0.98172636  0.95990920  0.10945057     0.35600
C103        C  0.99138937  0.06213428  0.89219456     0.35600
C104        C  0.99101619  0.11881742  0.95435706     0.35600
C105        C  0.01633528  0.88330995  0.90519277    -0.21900
C106        C  0.01601848  0.92093199  0.86752622    -0.21900
C107        C  0.00527378  0.09991038  0.13688095    -0.21900
C108        C  0.00816890  0.13782445  0.09955868    -0.21900
C109        C  0.97363533  0.87700615  0.09248130    -0.22900
C110        C  0.97147997  0.91262623  0.13168913    -0.22900
C111        C  0.98446605  0.10990562  0.86898119    -0.22900
C112        C  0.98454361  0.14570998  0.90808486    -0.22900
C113        C  0.99452017  0.88003740  0.99870216    -0.18300
C114        C  0.99555102  0.01461847  0.86508179    -0.18300
C115        C  0.99547491  0.14225329  0.00394911    -0.18300
C116        C  0.98565279  0.00678354  0.13714269    -0.18300
H117        H  0.02606744  0.84305164  0.89915839     0.14600
H118        H  0.02580759  0.91528480  0.82723080     0.14600
H119        H  0.01133005  0.10503160  0.17793656     0.14600
H120        H  0.01653885  0.17773337  0.10684926     0.14600
H121        H  0.96826505  0.83599242  0.09690254     0.12900
H122        H  0.96383604  0.90449854  0.17204134     0.12900
H123        H  0.98033763  0.11819714  0.82809004     0.12900
H124        H  0.98067378  0.18699983  0.90276316     0.12900
H125        H  0.97485322  0.98261351  0.96820173     0.26200
H126        H  0.97415900  0.04031233  0.03244920     0.26200
N127        N  0.99130913  0.95055758  0.56023389    -0.36600
N128        N  0.99841365  0.06085787  0.55785271    -0.57200
N129        N  0.98807890  0.05927748  0.44220007    -0.36600
N130        N  0.98823914  0.94874448  0.44423424    -0.57200
C131        C  0.00150676  0.95897314  0.61109770     0.27000
C132        C  0.99752861  0.89942428  0.55126179     0.27000
C133        C  0.99925648  0.10915885  0.45035132     0.27000
C134        C  0.99360509  0.05002375  0.39067450     0.27000
C135        C  0.99461124  0.05493558  0.60996933     0.35600
C136        C  0.99304668  0.11191431  0.54788653     0.35600
C137        C  0.98189903  0.89815211  0.45461838     0.35600
C138        C  0.98027694  0.95543593  0.39266257     0.35600
C139        C  0.01365450  0.91234222  0.63479220    -0.21900
C140        C  0.01113301  0.87490040  0.59723954    -0.21900
C141        C  0.01105710  0.13214279  0.40332813    -0.21900
C142        C  0.00759283  0.09491908  0.36585260    -0.21900
C143        C  0.98756735  0.10257092  0.63315993    -0.22900
C144        C  0.98672326  0.13857538  0.59399464    -0.22900
C145        C  0.97030594  0.87258922  0.40919041    -0.22900
C146        C  0.96920981  0.90878873  0.37014924    -0.22900
C147        C  0.99884613  0.00729140  0.63714658    -0.18300
C148        C  0.98888037  0.87361507  0.50361781    -0.18300
C149        C  0.98562217  0.00253334  0.36509080    -0.18300
C150        C  0.99673370  0.13561324  0.49838141    -0.18300
H151        H  0.02333062  0.90589946  0.67501618     0.14600
H152        H  0.01825534  0.83408115  0.60331574     0.14600
H153        H  0.02115410  0.17177682  0.39656488     0.14600
H154        H  0.01473550  0.10035666  0.32494777     0.14600
H155        H  0.98355856  0.11064045  0.67404491     0.12900
H156        H  0.98221087  0.17981915  0.59900974     0.12900
H157        H  0.96367740  0.83188219  0.40448349     0.12900
H158        H  0.96167822  0.90148379  0.32971999     0.12900
H159        H  0.97611988  0.97692668  0.53407032     0.26200
H160        H  0.97285365  0.03494753  0.46970898     0.26200
N161        N  0.50373213  0.93354231  0.95088887    -0.36600
N162        N  0.50841764  0.93663436  0.06688293    -0.57200
N163        N  0.50456516  0.04663677  0.06252138    -0.36600
N164        N  0.50685153  0.04332627  0.94665391    -0.57200
C165        C  0.51466305  0.88373273  0.96264788     0.27000
C166        C  0.51228807  0.94004861  0.89934386     0.27000
C167        C  0.51363662  0.03982044  0.11391793     0.27000
C168        C  0.51481714  0.09607026  0.05057688     0.27000
C169        C  0.50099010  0.88587530  0.05921585     0.35600
C170        C  0.50057927  0.94556307  0.11804750     0.35600
C171        C  0.49837585  0.03474664  0.89564751     0.35600
C172        C  0.49912941  0.09436350  0.95443435     0.35600
C173        C  0.52988062  0.85812403  0.91795141    -0.21900
C174        C  0.52832646  0.89360174  0.87811808    -0.21900
C175        C  0.52941163  0.08570213  0.13489610    -0.21900
C176        C  0.53029354  0.12111735  0.09501008    -0.21900
C177        C  0.48903989  0.86233793  0.10587436    -0.22900
C178        C  0.48871650  0.90011027  0.14304326    -0.22900
C179        C  0.48569404  0.08059739  0.87086348    -0.22900
C180        C  0.48607482  0.11831118  0.90802208    -0.22900
C181        C  0.50783708  0.85956979  0.01156470    -0.18300
C182        C  0.50467489  0.98645642  0.87071875    -0.18300
C183        C  0.50669989  0.12050899  0.00184856    -0.18300
C184        C  0.50597724  0.99386951  0.14274191    -0.18300
H185        H  0.54061205  0.81780762  0.91428109     0.14600
H186        H  0.53787609  0.88602542  0.83808127     0.14600
H187        H  0.53900015  0.09300051  0.17484856     0.14600
H188        H  0.54044709  0.16110055  0.09854606     0.14600
H189        H  0.48162300  0.82200292  0.11254086     0.12900
H190        H  0.48081376  0.89466221  0.18379556     0.12900
H191        H  0.47736059  0.08632866  0.83022285     0.12900
H192        H  0.47805241  0.15890126  0.90145830     0.12900
H193        H  0.48618463  0.95966064  0.97577476     0.26200
H194        H  0.48678131  0.02121820  0.03804580     0.26200
N195        N  0.49723436  0.93492859  0.56310475    -0.36600
N196        N  0.50090735  0.93798763  0.44720970    -0.57200
N197        N  0.49983204  0.04831514  0.45013400    -0.36600
N198        N  0.50245692  0.04513846  0.56608856    -0.57200
C199        C  0.50577820  0.88452896  0.55208766     0.27000
C200        C  0.50495662  0.94123767  0.61474813     0.27000
C201        C  0.50833880  0.04134594  0.39865466     0.27000
C202        C  0.50995787  0.09788118  0.46120523     0.27000
C203        C  0.49415867  0.88704321  0.45500560     0.35600
C204        C  0.49533064  0.94683026  0.39566160     0.35600
C205        C  0.49609270  0.03689897  0.61762232     0.35600
C206        C  0.49733603  0.09655908  0.55814158     0.35600
C207        C  0.51812848  0.85832506  0.59752183    -0.21900
C208        C  0.51770027  0.89400212  0.63683308    -0.21900
C209        C  0.52337059  0.08731358  0.37677269    -0.21900
C210        C  0.52420066  0.12293957  0.41601295    -0.21900
C211        C  0.48483276  0.86337355  0.40798904    -0.22900
C212        C  0.48538448  0.90118431  0.37058089    -0.22900
C213        C  0.48759956  0.08341858  0.64255030    -0.22900
C214        C  0.48849723  0.12111844  0.60503670    -0.22900
C215        C  0.49948617  0.86059687  0.50308305    -0.18300
C216        C  0.49974908  0.98816367  0.64282418    -0.18300
C217        C  0.50322679  0.12238692  0.50993014    -0.18300
C218        C  0.50199770  0.99499918  0.37052712    -0.18300
H219        H  0.52624939  0.81750714  0.60215161     0.14600
H220        H  0.52579078  0.88597540  0.67715248     0.14600
H221        H  0.53269538  0.09456071  0.33663251     0.14600
H222        H  0.53389691  0.16297500  0.41147346     0.14600
H223        H  0.47880500  0.82287364  0.40112498     0.12900
H224        H  0.47975685  0.89555400  0.32953126     0.12900
H225        H  0.48155003  0.08963472  0.68351462     0.12900
H226        H  0.48354948  0.16207663  0.61169877     0.12900
H227        H  0.48200193  0.96192329  0.53755184     0.26200
H228        H  0.48299051  0.02280685  0.47543848     0.26200
C229        C  0.50042162  0.98648148  0.70143821    -0.06100
C230        C  0.54262838  0.00442946  0.72787995    -0.17200
C231        C  0.54552011  0.00359611  0.78235885     0.11100
C232        C  0.50515942  0.98475363  0.81219908    -0.06000
C233        C  0.46321823  0.96611973  0.78581505    -0.17300
C234        C  0.46017758  0.96727988  0.73127978     0.11100
S235        S  0.60179914  0.02741316  0.81146346    -0.32200
S236        S  0.40334362  0.94481441  0.70219363    -0.32200
H237        H  0.40431563  0.97766415  0.65879392     0.29100
H238        H  0.60041589  0.99621834  0.85604590     0.29100
H239        H  0.57383281  0.01907920  0.70574529     0.19700
H240        H  0.43190101  0.95180522  0.80801193     0.19700
C241        C  0.50478425  0.99607649  0.20122442    -0.06100
C242        C  0.54493055  0.97400770  0.22955647    -0.17200
C243        C  0.54571488  0.97472567  0.28409271     0.11100
C244        C  0.50479120  0.99667536  0.31203108    -0.06000
C245        C  0.46512542  0.01976037  0.28374384    -0.17300
C246        C  0.46463205  0.01970071  0.22913001     0.11100
S247        S  0.60037235  0.94741451  0.31585298    -0.32200
S248        S  0.41135668  0.05009169  0.19747292    -0.32200
H249        H  0.41207893  0.01876750  0.15324613     0.29100
H250        H  0.59839267  0.97998511  0.35918696     0.29100
H251        H  0.57629548  0.95647575  0.20888462     0.19700
H252        H  0.43376439  0.03723586  0.30447014     0.19700
C253        C  0.99529811  0.01455496  0.80644949    -0.06100
C254        C  0.03814730  0.02992476  0.77900231    -0.17200
C255        C  0.04110930  0.02645190  0.72452753     0.11100
C256        C  0.99993722  0.00808071  0.69578593    -0.06000
C257        C  0.95730658  0.99245867  0.72331668    -0.17300
C258        C  0.95447892  0.99558689  0.77770595     0.11100
S259        S  0.09883373  0.04532867  0.69412656    -0.32200
S260        S  0.89754206  0.97454299  0.80816715    -0.32200
H261        H  0.89964403  0.00757013  0.85103110     0.29100
H262        H  0.09520295  0.01294805  0.65090418     0.29100
H263        H  0.07008717  0.04363979  0.80035232     0.19700
H264        H  0.92544864  0.97840664  0.70206354     0.19700
C265        C  0.98541325  0.00204817  0.30648064    -0.06100
C266        C  0.94365883  0.02234683  0.27935732    -0.17200
C267        C  0.94238206  0.02360289  0.22475575     0.11100
C268        C  0.98412206  0.00497615  0.19571376    -0.06000
C269        C  0.02592124  0.98479533  0.22290210    -0.17300
C270        C  0.02702075  0.98327998  0.27760002     0.11100
S271        S  0.88638929  0.04969660  0.19447261    -0.32200
S272        S  0.08235237  0.95892107  0.31058717    -0.32200
H273        H  0.11046514  0.94682825  0.26595946     0.29100
H274        H  0.88985743  0.02014846  0.14910103     0.29100
H275        H  0.91162647  0.03716034  0.30098400     0.19700
H276        H  0.05802953  0.97071539  0.20100155     0.19700
C277        C  0.50204675  0.17962338  0.51008845    -0.06100
C278        C  0.54762817  0.20550971  0.51063509    -0.17200
C279        C  0.54864343  0.25941255  0.51027736     0.11100
C280        C  0.50299836  0.28832878  0.50883034    -0.06000
C281        C  0.45745198  0.26223621  0.50960338    -0.17300
C282        C  0.45642278  0.20838146  0.50971108     0.11100
S283        S  0.60919805  0.28871847  0.51402913    -0.32200
S284        S  0.39563372  0.17906458  0.51007965    -0.32200
H285        H  0.41012092  0.13175760  0.48782321     0.29100
H286        H  0.59326705  0.32918917  0.54667573     0.29100
H287        H  0.58263386  0.18343364  0.51165237     0.19700
H288        H  0.42226343  0.28400920  0.50889396     0.19700
C289        C  0.50058704  0.69443291  0.49985802    -0.06100
C290        C  0.45487899  0.72243664  0.49895308    -0.17200
C291        C  0.45349755  0.77632872  0.50091329     0.11100
C292        C  0.49884341  0.80330786  0.50211877    -0.06000
C293        C  0.54462619  0.77559187  0.50116641    -0.17300
C294        C  0.54597668  0.72160982  0.50059983     0.11100
S295        S  0.39276095  0.80843866  0.50081361    -0.32200
S296        S  0.60647072  0.68956344  0.49727168    -0.32200
H297        H  0.60289860  0.67010434  0.54804613     0.29100
H298        H  0.40645425  0.85094263  0.53070039     0.29100
H299        H  0.41982785  0.70212042  0.49805735     0.19700
H300        H  0.57950135  0.79624413  0.50112354     0.19700
C301        C  0.51028151  0.28672674  0.99877119    -0.06100
C302        C  0.46915182  0.26133684  0.02079947    -0.17200
C303        C  0.46650608  0.20760025  0.02118391     0.11100
C304        C  0.50642620  0.17774239  0.00035164    -0.06000
C305        C  0.54759664  0.20242876  0.97850130    -0.17300
C306        C  0.54982744  0.25624017  0.97684918     0.11100
S307        S  0.41130797  0.17947969  0.04911598    -0.32200
S308        S  0.60494133  0.28271033  0.94751099    -0.32200
H309        H  0.57745328  0.30622286  0.90697174     0.29100
H310        H  0.41158082  0.13512484  0.01808230     0.29100
H311        H  0.43816380  0.28343405  0.03738357     0.19700
H312        H  0.57828793  0.17940507  0.96250486     0.19700
C313        C  0.50285958  0.69372800  0.00939919    -0.06100
C314        C  0.54627007  0.71821834  0.02667710    -0.17200
C315        C  0.54905469  0.77197117  0.02772457     0.11100
C316        C  0.50717401  0.80238162  0.01229993    -0.06000
C317        C  0.46339791  0.77839868  0.99626161    -0.17300
C318        C  0.46053133  0.72453429  0.99465762     0.11100
S319        S  0.60714370  0.79937974  0.04863071    -0.32200
S320        S  0.40183933  0.69646306  0.97579293    -0.32200
H321        H  0.37531087  0.74282875  0.96533147     0.29100
H322        H  0.60401284  0.84380120  0.01736654     0.29100
H323        H  0.57894937  0.69535828  0.03815869     0.19700
H324        H  0.43138966  0.80230985  0.98499734     0.19700
C325        C  0.50238497  0.49087168  0.69812066    -0.06100
C326        C  0.49768162  0.53809664  0.72370091    -0.17200
C327        C  0.50034818  0.54031193  0.77728876     0.11100
C328        C  0.50672114  0.49401839  0.80570213    -0.06000
C329        C  0.51220537  0.44682126  0.77989208    -0.17300
C330        C  0.51072669  0.44481358  0.72621669     0.11100
S331        S  0.49726934  0.60332398  0.80657749    -0.32200
S332        S  0.52135389  0.38288582  0.69600846    -0.32200
H333        H  0.54771893  0.40190317  0.65299185     0.29100
H334        H  0.53358485  0.59193477  0.84465771     0.29100
H335        H  0.49214454  0.57348183  0.70171623     0.19700
H336        H  0.51761776  0.41129356  0.80166225     0.19700
C337        C  0.50480232  0.48778008  0.19850524    -0.06100
C338        C  0.45780211  0.48803765  0.22289412    -0.17200
C339        C  0.45407776  0.48860070  0.27649157     0.11100
C340        C  0.49838634  0.48965798  0.30601058    -0.06000
C341        C  0.54536299  0.48967843  0.28165507    -0.17300
C342        C  0.54912685  0.48835755  0.22808690     0.11100
S343        S  0.39212930  0.48613621  0.30458496    -0.32200
S344        S  0.61127078  0.48557145  0.20024792    -0.32200
H345        H  0.59911801  0.45157849  0.16014841     0.29100
H346        H  0.40613833  0.45407326  0.34643845     0.29100
H347        H  0.42376209  0.48763525  0.20000132     0.19700
H348        H  0.57936266  0.49037306  0.30458918     0.19700
C349        C  0.99663760  0.30133279  0.49168386    -0.06100
C350        C  0.04236062  0.27357966  0.49454395    -0.17200
C351        C  0.04379931  0.21965497  0.49731445     0.11100
C352        C  0.99831300  0.19272086  0.49643558    -0.06000
C353        C  0.95264638  0.22037561  0.49293401    -0.17300
C354        C  0.95127248  0.27422330  0.49039088     0.11100
S355        S  0.10486674  0.18842852  0.50319931    -0.32200
S356        S  0.89058673  0.30585626  0.48413612    -0.32200
H357        H  0.90706274  0.34628866  0.45234684     0.29100
H358        H  0.09114311  0.13704351  0.49671359     0.29100
H359        H  0.07723831  0.29417524  0.49600514     0.19700
H360        H  0.91779803  0.19970014  0.49184165     0.19700
C361        C  0.99292934  0.70716589  0.50173568    -0.06100
C362        C  0.94713187  0.73401146  0.50924956    -0.17200
C363        C  0.94460745  0.78802626  0.51060424     0.11100
C364        C  0.98900166  0.81619910  0.50447850    -0.06000
C365        C  0.03479564  0.78949043  0.49722864    -0.17300
C366        C  0.03721358  0.73554934  0.49531137     0.11100
S367        S  0.88373581  0.81816261  0.52124227    -0.32200
S368        S  0.09749114  0.70555880  0.48184062    -0.32200
H369        H  0.07868198  0.66701011  0.44956852     0.29100
H370        H  0.89332151  0.86623675  0.49871773     0.29100
H371        H  0.91298194  0.71267797  0.51435330     0.19700
H372        H  0.06880155  0.81100896  0.49189490     0.19700
C373        C  0.79972298  0.49687839  0.50003767    -0.06100
C374        C  0.77435677  0.49699164  0.54771538    -0.17200
C375        C  0.72211154  0.49340241  0.55012136     0.11100
C376        C  0.69426200  0.49064758  0.50376508    -0.06000
C377        C  0.71972859  0.48941498  0.45622185    -0.17300
C378        C  0.77196637  0.49188841  0.45390238     0.11100
S379        S  0.69358291  0.49029798  0.61340451    -0.32200
S380        S  0.80086345  0.48601562  0.39111602    -0.32200
H381        H  0.84249432  0.45639021  0.40832477     0.29100
H382        H  0.65654817  0.45522732  0.59937768     0.29100
H383        H  0.79544114  0.49964063  0.58339816     0.19700
H384        H  0.69873755  0.48649547  0.42049917     0.19700
C385        C  0.19371132  0.50052513  0.49749142    -0.06100
C386        C  0.21786403  0.49042019  0.54473104    -0.17200
C387        C  0.27028263  0.48833302  0.54813337     0.11100
C388        C  0.29957014  0.49636305  0.50311528    -0.06000
C389        C  0.27510457  0.50655884  0.45588002    -0.17300
C390        C  0.22273348  0.50885713  0.45261968     0.11100
S391        S  0.29708574  0.47704511  0.61131332    -0.32200
S392        S  0.19527927  0.52374808  0.39037466    -0.32200
H393        H  0.15356754  0.55176064  0.40972221     0.29100
H394        H  0.33487901  0.51359695  0.60549177     0.29100
H395        H  0.19565748  0.48410802  0.57929689     0.19700
H396        H  0.29697655  0.51277396  0.42107347     0.19700
C397        C  0.99851773  0.30874998  0.00709449    -0.06100
C398        C  0.04299299  0.27956295  0.01454002    -0.17200
C399        C  0.04336044  0.22557212  0.01301017     0.11100
C400        C  0.99790322  0.19964886  0.00537686    -0.06000
C401        C  0.95321538  0.22869713  0.99944839    -0.17300
C402        C  0.95294088  0.28268458  0.00031121     0.11100
S403        S  0.10304510  0.19230017  0.02130659    -0.32200
S404        S  0.89293977  0.31576341  0.99446123    -0.32200
H405        H  0.90392715  0.35500731  0.02980226     0.29100
H406        H  0.09125188  0.14748874  0.99405588     0.29100
H407        H  0.07813237  0.29901526  0.01990223     0.19700
H408        H  0.91817758  0.20899731  0.99430812     0.19700
C409        C  0.00103136  0.71454137  0.98911816    -0.06100
C410        C  0.04492002  0.74158938  0.99907317    -0.17200
C411        C  0.04379807  0.79536660  0.00353261     0.11100
C412        C  0.99784244  0.82288169  0.99717930    -0.06000
C413        C  0.95427161  0.79603882  0.98580419    -0.17300
C414        C  0.95544686  0.74237503  0.98116309     0.11100
S415        S  0.10240630  0.82638835  0.01611975    -0.32200
S416        S  0.89806299  0.71200719  0.96268761    -0.32200
H417        H  0.92135704  0.67258508  0.93338965     0.29100
H418        H  0.08249570  0.87039664  0.04075675     0.29100
H419        H  0.08007144  0.72056775  0.00494036     0.19700
H420        H  0.91928579  0.81725037  0.97953746     0.19700
C421        C  0.70347882  0.49622541  0.00094679    -0.06100
C422        C  0.72474808  0.54454351  0.00916116    -0.17200
C423        C  0.77651584  0.55130671  0.00524624     0.11100
C424        C  0.80858786  0.50839042  0.99477188    -0.06000
C425        C  0.78730575  0.46020349  0.98603288    -0.17300
C426        C  0.73551446  0.45352481  0.98933520     0.11100
S427        S  0.79859330  0.61621232  0.01070435    -0.32200
S428        S  0.71342692  0.38895019  0.98078340    -0.32200
H429        H  0.67796857  0.39215873  0.02113266     0.29100
H430        H  0.83467668  0.61065971  0.97115501     0.29100
H431        H  0.70065765  0.57789377  0.01676593     0.19700
H432        H  0.81137637  0.42686109  0.97830804     0.19700
C433        C  0.30882067  0.49461256  0.00219433    -0.06100
C434        C  0.28455648  0.50799357  0.95565032    -0.17200
C435        C  0.23224756  0.50897281  0.95173851     0.11100
C436        C  0.20282683  0.49783155  0.99584933    -0.06000
C437        C  0.22710193  0.48377315  0.04223145    -0.17300
C438        C  0.27943499  0.48256250  0.04609029     0.11100
S439        S  0.20583519  0.52206754  0.88869386    -0.32200
S440        S  0.30587579  0.46840825  0.10892326    -0.32200
H441        H  0.34283060  0.50615286  0.10568639     0.29100
H442        H  0.16791090  0.48546810  0.89325030     0.29100
H443        H  0.30659368  0.51640152  0.92145060     0.19700
H444        H  0.20509999  0.47552087  0.07649599     0.19700
C445        C  0.00387650  0.50976513  0.80105467    -0.06100
C446        C  0.00331651  0.46151541  0.77702627    -0.17200
C447        C  0.00418781  0.45763536  0.72345245     0.11100
C448        C  0.00457257  0.50316122  0.69341592    -0.06000
C449        C  0.00510673  0.55142300  0.71746017    -0.17300
C450        C  0.00394919  0.55529310  0.77104322     0.11100
S451        S  0.00706783  0.39370582  0.69618690    -0.32200
S452        S  0.99956309  0.61915115  0.79835317    -0.32200
H453        H  0.96752651  0.60566247  0.83935486     0.29100
H454        H  0.03941031  0.40650491  0.65521631     0.29100
H455        H  0.00372855  0.42653946  0.80019311     0.19700
H456        H  0.00445161  0.58641537  0.69431463     0.19700
C457        C  0.99946374  0.51670115  0.30055846    -0.06100
C458        C  0.04659985  0.51804695  0.27651938    -0.17200
C459        C  0.05050546  0.52291072  0.22302295     0.11100
C460        C  0.00627691  0.52552444  0.19324365    -0.06000
C461        C  0.95927768  0.52593507  0.21744511    -0.17300
C462        C  0.95537127  0.52066728  0.27072073     0.11100
S463        S  0.11252787  0.52686035  0.19537766    -0.32200
S464        S  0.89330560  0.51503198  0.29747639    -0.32200
H465        H  0.90703557  0.47682822  0.33395409     0.29100
H466        H  0.09818081  0.55874567  0.15349454     0.29100
H467        H  0.08050449  0.51603590  0.29962742     0.19700
H468        H  0.92529094  0.52716925  0.19443236     0.19700
loop_ 
_geom_bond_atom_site_label_1 
_geom_bond_atom_site_label_2 
_geom_bond_distance 
_geom_bond_site_symmetry_2 
_ccdc_geom_bond_type 
O1           C17   1.272   1_655  A
O1           Zn7   1.971       .  S
C2           O18   1.273   1_454  A
C2           O15   1.274       .  A
C2          C397   1.483   1_455  S
O3           C16   1.271   1_554  A
O3          Cd10   2.059       .  S
O4           C22   1.272       .  A
O4          Cd13   2.036       .  S
O5           C19   1.274       .  A
O5           Cd9   2.071       .  S
O6           C17   1.272       .  A
O6           Cd9   2.035       .  S
Zn7          O18   2.021       .  S
Zn7          O20   2.013       .  S
Zn7          O12   1.929   1_655  S
O8           C19   1.273   1_554  A
O8          Cd13   2.060       .  S
Cd9          O11   2.078       .  S
Cd9          O12   1.994       .  S
Cd10         O14   2.056       .  S
Cd10         O23   2.028       .  S
Cd10         O12   1.985   1_654  S
O11          C21   1.274       .  A
O12         Cd13   1.988   1_556  S
Cd13         O15   2.073       .  S
O14          C21   1.272   1_654  A
C16          O20   1.273       .  A
C16         C424   1.481       .  S
C17         C445   1.452       .  S
C19         C436   1.481       .  S
C21         C409   1.475       .  S
C22          O23   1.271   1_455  A
C22         C460   1.451       .  S
O24          C40   1.275   1_455  A
O24         Zn30   2.029       .  S
C25          O41   1.271       .  A
C25          O38   1.270   1_455  A
C25         C448   1.452       .  S
O26          C39   1.272       .  A
O26         Cd33   2.063       .  S
O27          C45   1.272       .  A
O27         Cd36   2.059       .  S
O28          C42   1.274       .  A
O28         Cd32   2.075       .  S
O29          C40   1.274       .  A
O29         Cd32   2.074       .  S
Zn30         O41   1.974       .  S
Zn30         O43   2.020       .  S
Zn30         O35   1.935   1_455  S
O31          C42   1.271       .  A
O31         Cd36   2.058       .  S
Cd32         O34   2.036       .  S
Cd32         O35   1.991       .  S
Cd33         O37   2.033       .  S
Cd33         O46   2.075       .  S
Cd33         O35   1.993   1_455  S
O34          C44   1.272       .  A
O35         Cd36   1.987       .  S
Cd36         O38   2.024       .  S
O37          C44   1.272   1_455  A
C39          O43   1.273       .  A
C39         C385   1.472       .  S
C40         C361   1.482       .  S
C42         C373   1.475       .  S
C44         C457   1.453       .  S
C45          O46   1.274   1_655  A
C45         C349   1.475       .  S
O47          C63   1.274       .  A
O47         Zn53   2.021       .  S
C48          O64   1.271       .  A
C48          O61   1.271       .  A
C48         C337   1.449       .  S
O49          C62   1.272   1_556  A
O49         Cd56   2.058       .  S
O50          C68   1.274       .  A
O50         Cd59   2.067       .  S
O51          C65   1.272   1_556  A
O51         Cd55   2.060       .  S
O52          C63   1.271   1_556  A
O52         Cd55   2.057       .  S
Zn53         O64   1.974       .  S
Zn53         O66   2.020       .  S
Zn53         O58   1.935       .  S
O54          C65   1.273       .  A
O54         Cd59   2.067       .  S
Cd55         O57   2.025       .  S
Cd55         O58   1.982   1_556  S
Cd56         O60   2.030       .  S
Cd56         O69   2.065       .  S
Cd56         O58   1.986   1_556  S
O57          C67   1.270       .  A
O58         Cd59   1.987       .  S
Cd59         O61   2.024       .  S
O60          C67   1.271       .  A
C62          O66   1.274       .  A
C62         C421   1.482       .  S
C63         C313   1.487       .  S
C65         C433   1.480       .  S
C67         C328   1.453       .  S
C68          O69   1.271   1_554  A
C68         C301   1.492   1_554  S
O70          C86   1.272       .  A
O70         Zn76   2.018       .  S
C71          O87   1.271       .  A
C71          O84   1.271       .  A
C71         C325   1.446       .  S
O72          C85   1.271       .  A
O72         Cd79   2.057       .  S
O73          C91   1.273       .  A
O73         Cd82   2.064       .  S
O74          C88   1.274       .  A
O74         Cd78   2.067       .  S
O75          C86   1.273       .  A
O75         Cd78   2.069       .  S
Zn76         O87   1.970       .  S
Zn76         O89   2.011       .  S
Zn76         O81   1.932       .  S
O77          C88   1.274       .  A
O77         Cd82   2.070       .  S
Cd78         O80   2.033       .  S
Cd78         O81   1.990       .  S
Cd79         O83   2.024       .  S
Cd79         O92   2.068       .  S
Cd79         O81   1.987       .  S
O80          C90   1.271       .  A
O81         Cd82   1.991       .  S
Cd82         O84   2.029       .  S
O83          C90   1.271       .  A
C85          O89   1.272       .  A
C85         C376   1.474       .  S
C86         C289   1.481       .  S
C88         C388   1.481       .  S
C90         C340   1.448       .  S
C91          O92   1.273       .  A
C91         C280   1.478       .  S
N93          C98   1.360   1_655  A
N93          C97   1.353   1_655  A
N93         H125   1.036       .  S
N94         C101   1.352       .  A
N94         C102   1.357       .  A
N95         C100   1.354       .  A
N95          C99   1.362       .  A
N95         H126   1.035       .  S
N96         C103   1.360       .  A
N96         C104   1.354       .  A
C97         C105   1.389       .  A
C97         C113   1.421   1_455  A
C98         C114   1.420   1_465  A
C98         C106   1.385       .  A
C99         C107   1.384   1_655  A
C99         C116   1.425       .  A
C100        C115   1.428       .  A
C100        C108   1.390   1_655  A
C101        C113   1.420   1_554  A
C101        C109   1.388       .  A
C102        C116   1.420   1_565  A
C102        C110   1.385       .  A
C103        C111   1.383       .  A
C103        C114   1.423       .  A
C104        C112   1.390       .  A
C104        C115   1.427   1_556  A
C105        C106   1.375       .  A
C105        H117   1.082       .  S
C106        H118   1.082       .  S
C107        C108   1.377       .  A
C107        H119   1.082       .  S
C108        H120   1.082       .  S
C109        C110   1.375       .  A
C109        H121   1.082       .  S
C110        H122   1.082       .  S
C111        C112   1.376       .  A
C111        H123   1.082       .  S
C112        H124   1.082       .  S
C113        C412   1.484       .  S
C114        C253   1.515       .  S
C115        C400   1.493       .  S
C116        C268   1.514       .  S
N127        C132   1.354       .  A
N127        C131   1.362   1_655  A
N127        H159   1.036       .  S
N128        C135   1.358       .  A
N128        C136   1.352       .  A
N129        C134   1.361       .  A
N129        C133   1.352       .  A
N129        H160   1.037       .  S
N130        C137   1.353       .  A
N130        C138   1.359       .  A
C131        C139   1.385       .  A
C131        C147   1.426   1_465  A
C132        C148   1.426       .  A
C132        C140   1.390   1_655  A
C133        C141   1.389   1_655  A
C133        C150   1.421       .  A
C134        C149   1.421       .  A
C134        C142   1.385   1_655  A
C135        C147   1.421       .  A
C135        C143   1.385       .  A
C136        C150   1.420       .  A
C136        C144   1.388       .  A
C137        C145   1.390       .  A
C137        C148   1.425       .  A
C138        C146   1.383       .  A
C138        C149   1.421   1_565  A
C139        C140   1.379       .  A
C139        H151   1.082       .  S
C140        H152   1.082       .  S
C141        C142   1.375       .  A
C141        H153   1.082       .  S
C142        H154   1.082       .  S
C143        C144   1.373       .  A
C143        H155   1.082       .  S
C144        H156   1.082       .  S
C145        C146   1.375       .  A
C145        H157   1.082       .  S
C146        H158   1.082       .  S
C147        C256   1.515       .  S
C148        C364   1.490       .  S
C149        C265   1.514       .  S
C150        C352   1.484       .  S
N161        C166   1.361       .  A
N161        C165   1.351       .  A
N161        H193   1.039       .  S
N162        C169   1.352       .  A
N162        C170   1.358       .  A
N163        C168   1.352       .  A
N163        C167   1.360       .  A
N163        H194   1.039       .  S
N164        C171   1.358       .  A
N164        C172   1.351       .  A
C165        C173   1.390       .  A
C165        C181   1.421   1_556  A
C166        C182   1.421       .  A
C166        C174   1.384       .  A
C167        C175   1.385       .  A
C167        C184   1.421   1_545  A
C168        C183   1.421       .  A
C168        C176   1.390       .  A
C169        C181   1.420       .  A
C169        C177   1.388       .  A
C170        C184   1.419       .  A
C170        C178   1.384       .  A
C171        C179   1.383       .  A
C171        C182   1.418   1_545  A
C172        C180   1.389       .  A
C172        C183   1.420   1_556  A
C173        C174   1.377       .  A
C173        H185   1.082       .  S
C174        H186   1.082       .  S
C175        C176   1.378       .  A
C175        H187   1.082       .  S
C176        H188   1.082       .  S
C177        C178   1.375       .  A
C177        H189   1.082       .  S
C178        H190   1.082       .  S
C179        C180   1.374       .  A
C179        H191   1.082       .  S
C180        H192   1.082       .  S
C181        C316   1.484       .  S
C182        C232   1.513       .  S
C183        C304   1.485       .  S
C184        C241   1.512       .  S
N195        C200   1.362       .  A
N195        C199   1.353       .  A
N195        H227   1.037       .  S
N196        C203   1.352       .  A
N196        C204   1.358       .  A
N197        C202   1.352       .  A
N197        C201   1.361       .  A
N197        H228   1.037       .  S
N198        C205   1.358       .  A
N198        C206   1.353       .  A
C199        C207   1.390       .  A
C199        C215   1.425       .  A
C200        C216   1.424       .  A
C200        C208   1.385       .  A
C201        C209   1.385       .  A
C201        C218   1.421   1_545  A
C202        C217   1.422       .  A
C202        C210   1.390       .  A
C203        C215   1.422       .  A
C203        C211   1.389       .  A
C204        C218   1.420       .  A
C204        C212   1.384       .  A
C205        C213   1.384       .  A
C205        C216   1.421   1_545  A
C206        C214   1.389       .  A
C206        C217   1.421       .  A
C207        C208   1.377       .  A
C207        H219   1.082       .  S
C208        H220   1.082       .  S
C209        C210   1.376       .  A
C209        H221   1.082       .  S
C210        H222   1.082       .  S
C211        C212   1.374       .  A
C211        H223   1.082       .  S
C212        H224   1.082       .  S
C213        C214   1.374       .  A
C213        H225   1.082       .  S
C214        H226   1.082       .  S
C215        C292   1.487       .  S
C216        C229   1.515       .  S
C217        C277   1.484       .  S
C218        C244   1.513       .  S
C229        C230   1.407   1_565  A
C229        C234   1.418       .  A
C230        C231   1.410       .  A
C230        H239   1.084       .  S
C231        C232   1.417   1_545  A
C231        S235   1.803       .  S
C232        C233   1.407       .  A
C233        C234   1.411       .  A
C233        H240   1.084       .  S
C234        S236   1.803       .  S
S235        H238   1.405   1_545  S
S236        H237   1.405       .  S
C241        C242   1.407       .  A
C241        C246   1.418   1_565  A
C242        C243   1.409       .  A
C242        H251   1.084       .  S
C243        C244   1.417       .  A
C243        S247   1.803       .  S
C244        C245   1.407   1_565  A
C245        C246   1.411       .  A
C245        H252   1.084       .  S
C246        S248   1.804       .  S
S247        H250   1.406       .  S
S248        H249   1.405       .  S
C253        C254   1.408   1_655  A
C253        C258   1.418   1_545  A
C254        C255   1.412       .  A
C254        H263   1.083       .  S
C255        C256   1.419   1_455  A
C255        S259   1.803       .  S
C256        C257   1.406   1_545  A
C257        C258   1.409       .  A
C257        H264   1.084       .  S
C258        S260   1.803       .  S
S259        H262   1.405       .  S
S260        H261   1.405   1_565  S
C265        C266   1.407       .  A
C265        C270   1.414   1_645  A
C266        C267   1.411       .  A
C266        H275   1.083       .  S
C267        C268   1.418       .  A
C267        S271   1.803       .  S
C268        C269   1.408   1_645  A
C269        C270   1.414       .  A
C269        H276   1.082       .  S
C270        S272   1.805       .  S
S271        H274   1.405       .  S
S272        H273   1.406       .  S
C277        C278   1.402       .  A
C277        C282   1.412       .  A
C278        C279   1.399       .  A
C278        H287   1.084       .  S
C279        C280   1.415       .  A
C279        S283   1.803       .  S
C280        C281   1.404       .  A
C281        C282   1.398       .  A
C281        H288   1.084       .  S
C282        S284   1.806       .  S
S283        H286   1.407       .  S
S284        H285   1.403       .  S
C289        C290   1.404       .  A
C289        C294   1.415       .  A
C290        C291   1.399       .  A
C290        H299   1.084       .  S
C291        C292   1.411       .  A
C291        S295   1.804       .  S
C292        C293   1.402       .  A
C293        C294   1.400       .  A
C293        H300   1.084       .  S
C294        S296   1.799       .  S
S295        H298   1.405       .  S
S296        H297   1.407       .  S
C301        C302   1.410   1_556  A
C301        C306   1.422       .  A
C302        C303   1.397       .  A
C302        H311   1.083       .  S
C303        C304   1.409       .  A
C303        S307   1.805       .  S
C304        C305   1.400   1_554  A
C305        C306   1.399       .  A
C305        H312   1.084       .  S
C306        S308   1.801       .  S
S307        H310   1.405       .  S
S308        H309   1.408       .  S
C313        C314   1.408       .  A
C313        C318   1.419   1_554  A
C314        C315   1.399       .  A
C314        H323   1.084       .  S
C315        C316   1.409       .  A
C315        S319   1.804       .  S
C316        C317   1.400   1_554  A
C317        C318   1.402       .  A
C317        H324   1.083       .  S
C318        S320   1.810       .  S
S319        H322   1.405       .  S
S320        H321   1.407       .  S
C325        C326   1.398       .  A
C325        C330   1.409       .  A
C326        C327   1.388       .  A
C326        H335   1.084       .  S
C327        C328   1.412       .  A
C327        S331   1.805       .  S
C328        C329   1.402       .  A
C329        C330   1.388       .  A
C329        H336   1.084       .  S
C330        S332   1.806       .  S
S331        H334   1.407       .  S
S332        H333   1.407       .  S
C337        C338   1.401       .  A
C337        C342   1.409       .  A
C338        C339   1.388       .  A
C338        H347   1.085       .  S
C339        C340   1.408       .  A
C339        S343   1.805       .  S
C340        C341   1.400       .  A
C341        C342   1.388       .  A
C341        H348   1.085       .  S
C342        S344   1.805       .  S
S343        H346   1.407       .  S
S344        H345   1.407       .  S
C349        C350   1.403   1_655  A
C349        C354   1.414       .  A
C350        C351   1.400       .  A
C350        H359   1.084       .  S
C351        C352   1.414   1_455  A
C351        S355   1.808       .  S
C352        C353   1.402       .  A
C353        C354   1.398       .  A
C353        H360   1.084       .  S
C354        S356   1.804       .  S
S355        H358   1.401       .  S
S356        H357   1.407       .  S
C361        C362   1.405       .  A
C361        C366   1.415   1_655  A
C362        C363   1.402       .  A
C362        H371   1.084       .  S
C363        C364   1.414       .  A
C363        S367   1.806       .  S
C364        C365   1.402   1_655  A
C365        C366   1.400       .  A
C365        H372   1.084       .  S
C366        S368   1.803       .  S
S367        H370   1.402       .  S
S368        H369   1.407       .  S
C373        C374   1.404       .  A
C373        C378   1.412       .  A
C374        C375   1.399       .  A
C374        H383   1.084       .  S
C375        C376   1.413       .  A
C375        S379   1.804       .  S
C376        C377   1.402       .  A
C377        C378   1.397       .  A
C377        H384   1.084       .  S
C378        S380   1.800       .  S
S379        H382   1.407       .  S
S380        H381   1.407       .  S
C385        C386   1.402       .  A
C385        C390   1.411       .  A
C386        C387   1.400       .  A
C386        H395   1.084       .  S
C387        C388   1.417       .  A
C387        S391   1.803       .  S
C388        C389   1.406       .  A
C389        C390   1.399       .  A
C389        H396   1.084       .  S
C390        S392   1.805       .  S
S391        H394   1.407       .  S
S392        H393   1.406       .  S
C397        C398   1.405   1_655  A
C397        C402   1.416       .  A
C398        C399   1.401       .  A
C398        H407   1.084       .  S
C399        C400   1.414   1_455  A
C399        S403   1.805       .  S
C400        C401   1.403   1_554  A
C401        C402   1.401   1_556  A
C401        H408   1.084       .  S
C402        S404   1.804   1_554  S
S403        H406   1.404   1_554  S
S404        H405   1.407   1_556  S
C409        C410   1.403       .  A
C409        C414   1.414   1_455  A
C410        C411   1.400   1_556  A
C410        H419   1.084   1_556  S
C411        C412   1.413   1_454  A
C411        S415   1.805       .  S
C412        C413   1.401       .  A
C413        C414   1.398       .  A
C413        H420   1.084       .  S
C414        S416   1.803       .  S
S415        H418   1.403       .  S
S416        H417   1.407       .  S
C421        C422   1.405       .  A
C421        C426   1.416   1_554  A
C422        C423   1.399       .  A
C422        H431   1.084       .  S
C423        C424   1.415   1_554  A
C423        S427   1.803       .  S
C424        C425   1.404       .  A
C425        C426   1.398       .  A
C425        H432   1.084       .  S
C426        S428   1.803       .  S
S427        H430   1.407   1_554  S
S428        H429   1.407   1_556  S
C433        C434   1.405   1_554  A
C433        C438   1.415       .  A
C434        C435   1.398       .  A
C434        H443   1.084       .  S
C435        C436   1.414       .  A
C435        S439   1.803       .  S
C436        C437   1.406   1_556  A
C437        C438   1.399       .  A
C437        H444   1.084       .  S
C438        S440   1.804       .  S
S439        H442   1.407       .  S
S440        H441   1.407       .  S
C445        C446   1.400       .  A
C445        C450   1.410       .  A
C446        C447   1.388       .  A
C446        H455   1.084       .  S
C447        C448   1.410       .  A
C447        S451   1.805       .  S
C448        C449   1.401       .  A
C449        C450   1.388       .  A
C449        H456   1.084       .  S
C450        S452   1.805   1_455  S
S451        H454   1.407       .  S
S452        H453   1.407       .  S
C457        C458   1.402   1_655  A
C457        C462   1.409       .  A
C458        C459   1.391       .  A
C458        H467   1.084       .  S
C459        C460   1.409       .  A
C459        S463   1.805       .  S
C460        C461   1.399   1_455  A
C461        C462   1.386       .  A
C461        H468   1.085       .  S
C462        S464   1.801       .  S
S463        H466   1.407       .  S
S464        H465   1.407       .  S
