geometry optimzed in LAMMPS
_audit_creation_date              2020-11-30 
_audit_creation_method            'lammps2cif' 
_symmetry_space_group_name_H-M    'P1' 
_symmetry_Int_Tables_number       1 
_symmetry_cell_setting            triclinic 
loop_ 
_symmetry_equiv_pos_as_xyz 
  x,y,z 
_cell_length_a                    64.17201302 
_cell_length_b                    64.17001656434665 
_cell_length_c                    64.15865216318466 
_cell_angle_alpha                 90.0284153400136 
_cell_angle_beta                  90.00590575974063 
_cell_angle_gamma                 90.03840334410866 
loop_ 
_atom_site_label 
_atom_site_type_symbol 
_atom_site_fract_x 
_atom_site_fract_y 
_atom_site_fract_z 
_atom_site_charge 
O1          O  0.86940823  0.84627380  0.60498752    -0.85800
O2          O  0.89460445  0.83694357  0.63847104    -0.82800
C3          C  0.90374373  0.85383345  0.64310265     0.97700
O4          O  0.89360513  0.86871355  0.65095791    -0.82900
O5          O  0.86035253  0.89407430  0.66009672    -0.85500
C6          C  0.85572522  0.90295875  0.64308097     1.02200
O7          O  0.84759615  0.89268803  0.62840680    -0.78300
O8          O  0.83769321  0.85881775  0.60369677    -0.78500
C9          C  0.85455923  0.85392760  0.59465185     1.02100
O10         O  0.83672048  0.82063229  0.62204305    -0.85800
O11         O  0.86030946  0.81459086  0.65695817    -0.82900
C12         C  0.86925332  0.81853382  0.67398890     0.97700
O13         O  0.87675976  0.83649168  0.67731124    -0.82900
O14         O  0.84186287  0.86037907  0.68329041    -0.85500
C15         C  0.82488452  0.86938969  0.67928271     1.02200
O16         O  0.82161350  0.87674074  0.66126344    -0.78300
O17         O  0.81513161  0.84135818  0.63840333    -0.78500
C18         C  0.81892250  0.82411327  0.62981996     1.02100
Cr19       Cr  0.86456265  0.83138198  0.63152620     1.93700
Cr20       Cr  0.86720198  0.86418160  0.66617605     1.93200
Cr21       Cr  0.83225912  0.86647027  0.63364724     1.39100
O22         O  0.85475321  0.85408328  0.64372174    -1.23500
O23         O  0.65759886  0.89321405  0.86580830    -0.85800
O24         O  0.66690740  0.85942151  0.89089873    -0.82800
C25         C  0.64991206  0.85396850  0.89936508     0.97700
O26         O  0.63555567  0.84603459  0.88855523    -0.82900
O27         O  0.61150796  0.83709050  0.85425016    -0.85500
C28         C  0.60252785  0.85409670  0.84967386     1.02200
O29         O  0.61286678  0.86896984  0.84202575    -0.78300
O30         O  0.64646328  0.89432563  0.83354930    -0.78500
C31         C  0.65025613  0.90339602  0.85067006     1.02100
O32         O  0.68495072  0.87722696  0.83389767    -0.85800
O33         O  0.69099848  0.84210003  0.85720592    -0.82900
C34         C  0.68705378  0.82471024  0.86543263     0.97700
O35         O  0.66898831  0.82092517  0.87242134    -0.82900
O36         O  0.64677411  0.81504614  0.83667028    -0.85500
C37         C  0.63826102  0.81899518  0.81945158     1.02200
O38         O  0.63033433  0.83675079  0.81622957    -0.78300
O39         O  0.66556233  0.86043908  0.81136195    -0.78500
C40         C  0.68234742  0.86961948  0.81585446     1.02100
Cr41       Cr  0.67340717  0.86706071  0.86121729     1.93700
Cr42       Cr  0.64140236  0.83153096  0.86207561     1.93200
Cr43       Cr  0.63967682  0.86440325  0.82754950     1.39100
O44         O  0.65141272  0.85441240  0.85039741    -1.23500
O45         O  0.86082944  0.66583773  0.88901378    -0.85800
O46         O  0.89480615  0.65668022  0.86457705    -0.82800
C47         C  0.90532995  0.64853614  0.85012875     0.97700
O48         O  0.89669813  0.64371358  0.83303275    -0.82900
O49         O  0.87152638  0.61024336  0.84211208    -0.85500
C50         C  0.85658244  0.59991672  0.84959289     1.02200
O51         O  0.83950199  0.60886928  0.85389694    -0.78300
O52         O  0.84802204  0.63415416  0.88763378    -0.78500
C53         C  0.85579444  0.64896202  0.89799292     1.02100
O54         O  0.84312232  0.68843398  0.85439157    -0.85800
O55         O  0.87865776  0.68242067  0.83145602    -0.82900
C56         C  0.87166271  0.67874042  0.81334542     0.97700
O57         O  0.86292562  0.66159314  0.80946689    -0.82900
O58         O  0.83948819  0.62653636  0.81535161    -0.85500
C59         C  0.82158462  0.63434114  0.81808052     1.02200
O60         O  0.81720985  0.64318323  0.83506957    -0.78300
O61         O  0.82246345  0.66656884  0.87047007    -0.78500
C62         C  0.82598617  0.68454671  0.86315034     1.02100
Cr63       Cr  0.86843539  0.67158974  0.85912360     1.93700
Cr64       Cr  0.86690315  0.63647476  0.82673920     1.93200
Cr65       Cr  0.83356083  0.63889691  0.86084794     1.39100
O66         O  0.85639291  0.64891336  0.84900930    -1.23500
O67         O  0.66669563  0.60893347  0.63989904    -0.85800
O68         O  0.65668675  0.63422826  0.60657426    -0.82800
C69         C  0.64884176  0.64911711  0.59642270     0.97700
O70         O  0.64421423  0.66600949  0.60557678    -0.82900
O71         O  0.61062864  0.65614915  0.63031292    -0.85500
C72         C  0.60030346  0.64783506  0.64481192     1.02200
O73         O  0.60920889  0.64272909  0.66171316    -0.78300
O74         O  0.63492888  0.60961356  0.65237860    -0.78500
C75         C  0.64993558  0.59959877  0.64460090     1.02100
O76         O  0.68886093  0.64340579  0.65826157    -0.85800
O77         O  0.68239773  0.66695420  0.62329916    -0.82900
C78         C  0.67904605  0.68476590  0.63110651     0.97700
O79         O  0.66206338  0.68843702  0.64024750    -0.82900
O80         O  0.62674512  0.68175599  0.66338536    -0.85500
C81         C  0.63436890  0.67823016  0.68123542     1.02200
O82         O  0.64319868  0.66112724  0.68494830    -0.78300
O83         O  0.66715602  0.62669553  0.67863298    -0.78500
C84         C  0.68499265  0.63452330  0.67534304     1.02100
Cr85       Cr  0.67190341  0.63905730  0.63293620     1.93700
Cr86       Cr  0.63685643  0.67133861  0.63559342     1.93200
Cr87       Cr  0.63929478  0.63599666  0.66768887     1.39100
O88         O  0.64925483  0.64870523  0.64534099    -1.23500
O89         O  0.89397424  0.15614733  0.63008523    -0.85800
O90         O  0.86023294  0.16464007  0.60482692    -0.82800
C91         C  0.85615689  0.14743161  0.59601437     0.97700
O92         O  0.84891360  0.13248770  0.60650934    -0.82900
O93         O  0.83966688  0.10784252  0.64038440    -0.85500
C94         C  0.85668766  0.09927217  0.64550718     1.02200
O95         O  0.87115523  0.10993729  0.65347444    -0.78300
O96         O  0.89545519  0.14433353  0.66213433    -0.78500
C97         C  0.90439141  0.14888218  0.64508612     1.02100
O98         O  0.87702012  0.18228055  0.66225502    -0.85800
O99         O  0.84162298  0.18722888  0.63892635    -0.82900
C100        C  0.82466971  0.18274329  0.63007704     0.97700
O101        O  0.82197273  0.16475809  0.62239641    -0.82900
O102        O  0.81599013  0.14171924  0.65766022    -0.85500
C103        C  0.81978831  0.13315126  0.67490264     1.02200
O104        O  0.83791625  0.12635220  0.67880287    -0.78300
O105        O  0.86060478  0.16216441  0.68434559    -0.78500
C106        C  0.86936169  0.17923776  0.68017972     1.02100
Cr107      Cr  0.86733345  0.17084280  0.63474207     1.93700
Cr108      Cr  0.83335709  0.13745721  0.63265652     1.93200
Cr109      Cr  0.86557639  0.13657032  0.66794508     1.39100
O110        O  0.85550686  0.14818291  0.64505481    -1.23500
O111        O  0.87122338  0.39256375  0.84253017    -0.85800
O112        O  0.89611519  0.35853221  0.83416168    -0.82800
C113        C  0.90479221  0.35389263  0.85129026     0.97700
O114        O  0.89418070  0.34633752  0.86601372    -0.82900
O115        O  0.85988192  0.33795557  0.89055217    -0.85500
C116        C  0.85506152  0.35508069  0.89914373     1.02200
O117        O  0.84762375  0.36976810  0.88844073    -0.78300
O118        O  0.83920909  0.39428738  0.85429186    -0.78500
C119        C  0.85637311  0.40307204  0.84997851     1.02100
O120        O  0.83900073  0.37570049  0.81608887    -0.85800
O121        O  0.86213448  0.34038220  0.81102294    -0.82900
C122        C  0.87040099  0.32315194  0.81548686     0.97700
O123        O  0.87769918  0.32006997  0.83355906    -0.82900
O124        O  0.84216435  0.31484799  0.85630632    -0.85500
C125        C  0.82493856  0.31904736  0.86471183     1.02200
O126        O  0.82162845  0.33710656  0.87194864    -0.78300
O127        O  0.81660566  0.35981922  0.83633176    -0.78500
C128        C  0.82101591  0.36815215  0.81912757     1.02100
Cr129      Cr  0.86638116  0.36592400  0.82769930     1.93700
Cr130      Cr  0.86759514  0.33156052  0.86086559     1.93200
Cr131      Cr  0.83303817  0.36451265  0.86187158     1.39100
O132        O  0.85577427  0.35408722  0.85023748    -1.23500
O133        O  0.64473958  0.10946366  0.83252260    -0.85800
O134        O  0.61120867  0.13442593  0.84209429    -0.82800
C135        C  0.60085927  0.14899444  0.85024912     0.97700
O136        O  0.60981040  0.16582176  0.85550694    -0.82900
O137        O  0.63500759  0.15603563  0.88877314    -0.85500
C138        C  0.64985519  0.14824905  0.89897615     1.02200
O139        O  0.66675764  0.14353259  0.88989663    -0.78300
O140        O  0.65728472  0.11035162  0.86429880    -0.78500
C141        C  0.64946641  0.10025010  0.84935441     1.02100
O142        O  0.66298666  0.14408756  0.81032450    -0.85800
O143        O  0.62790945  0.16745770  0.81682570    -0.82900
C144        C  0.63525009  0.18537991  0.82066116     0.97700
O145        O  0.64407142  0.18897573  0.83780360    -0.82900
O146        O  0.66758899  0.18230482  0.87251950    -0.85500
C147        C  0.68546666  0.17911359  0.86477457     1.02200
O148        O  0.68942005  0.16209883  0.85580680    -0.78300
O149        O  0.68328774  0.12722955  0.83190212    -0.78500
C150        C  0.67989791  0.13484195  0.81400273     1.02100
Cr151      Cr  0.63764550  0.13955935  0.82720755     1.93700
Cr152      Cr  0.63983486  0.17153000  0.86269001     1.93200
Cr153      Cr  0.67244590  0.13674760  0.85978562     1.39100
O154        O  0.64989044  0.14920596  0.84996687    -1.23500
O155        O  0.65852367  0.36855098  0.60630338    -0.85800
O156        O  0.66749894  0.39367068  0.64004083    -0.82800
C157        C  0.65039707  0.40266546  0.64404492     0.97700
O158        O  0.63538806  0.39238508  0.65148674    -0.82900
O159        O  0.61035151  0.35874176  0.66114164    -0.85500
C160        C  0.60149759  0.35320010  0.64438482     1.02200
O161        O  0.61198435  0.34520529  0.62981141    -0.78300
O162        O  0.64597548  0.33675536  0.60491471    -0.78500
C163        C  0.65083309  0.35370150  0.59594238     1.02100
O164        O  0.68447726  0.33624686  0.62300615    -0.85800
O165        O  0.68985697  0.35945661  0.65847091    -0.82900
C166        C  0.68558407  0.36832653  0.67546800     0.97700
O167        O  0.66768505  0.37614439  0.67832129    -0.82900
O168        O  0.64420190  0.34127786  0.68457157    -0.85500
C169        C  0.63588170  0.32391546  0.68073464     1.02200
O170        O  0.62909791  0.31987413  0.66263074    -0.78300
O171        O  0.66429715  0.31421357  0.63936368    -0.78500
C172        C  0.68131436  0.31828726  0.63048583     1.02100
Cr173      Cr  0.67331381  0.36375570  0.63288121     1.93700
Cr174      Cr  0.64015175  0.36621146  0.66710974     1.93200
Cr175      Cr  0.63874686  0.33079938  0.63489064     1.39100
O176        O  0.65061607  0.35363079  0.64488475    -1.23500
O177        O  0.13382536  0.89354746  0.65312134    -0.85800
O178        O  0.10943604  0.85931656  0.66219388    -0.82800
C179        C  0.10071605  0.85470345  0.64508181     0.97700
O180        O  0.11137938  0.84755479  0.63021024    -0.82900
O181        O  0.14536285  0.83883186  0.60544563    -0.85500
C182        C  0.15019926  0.85584808  0.59666174     1.02200
O183        O  0.15789358  0.87055834  0.60718317    -0.78300
O184        O  0.16572540  0.89562271  0.64098053    -0.78500
C185        C  0.14840250  0.90413797  0.64525029     1.02100
O186        O  0.16639380  0.87779500  0.67957647    -0.85800
O187        O  0.14391320  0.84193122  0.68500959    -0.82900
C188        C  0.13535606  0.82475942  0.68080045     0.97700
O189        O  0.12796656  0.82150880  0.66277942    -0.82900
O190        O  0.16328409  0.81600637  0.63969657    -0.85500
C191        C  0.18050353  0.82013318  0.63123198     1.02200
O192        O  0.18404669  0.83827627  0.62428011    -0.78300
O193        O  0.18893656  0.86176783  0.65967503    -0.78500
C194        C  0.18449560  0.87052226  0.67668999     1.02100
Cr195      Cr  0.13916104  0.86725769  0.66822426     1.93700
Cr196      Cr  0.13789472  0.83274116  0.63527105     1.93200
Cr197      Cr  0.17242027  0.86579972  0.63394177     1.39100
O198        O  0.14977396  0.85533388  0.64571126    -1.23500
O199        O  0.34862519  0.86982010  0.88858900    -0.85800
O200        O  0.33984626  0.89465069  0.85476709    -0.82800
C201        C  0.35698722  0.90342466  0.85041224     0.97700
O202        O  0.37171548  0.89299208  0.84262250    -0.82900
O203        O  0.39647480  0.85903312  0.83360011    -0.85500
C204        C  0.40535091  0.85384946  0.85046599     1.02200
O205        O  0.39488838  0.84603550  0.86517067    -0.78300
O206        O  0.36083766  0.83794503  0.89015302    -0.78500
C207        C  0.35631190  0.85502946  0.89899414     1.02100
O208        O  0.32228990  0.83754047  0.87219778    -0.85800
O209        O  0.31687229  0.86054561  0.83659279    -0.82900
C210        C  0.32112791  0.86919044  0.81947217     0.97700
O211        O  0.33918480  0.87653276  0.81633527    -0.82900
O212        O  0.36226812  0.84115280  0.81057763    -0.85500
C213        C  0.37058904  0.82385395  0.81470920     1.02200
O214        O  0.37766917  0.82034262  0.83278380    -0.78300
O215        O  0.34231206  0.81527669  0.85594709    -0.78500
C216        C  0.32528466  0.81955245  0.86471265     1.02100
Cr217      Cr  0.33367808  0.86487969  0.86209527     1.93700
Cr218      Cr  0.36666321  0.86651356  0.82755480     1.93200
Cr219      Cr  0.36801003  0.83168708  0.86029775     1.39100
O220        O  0.35624627  0.85444904  0.85007686    -1.01100
O221        O  0.14622487  0.60924455  0.83432653    -0.85800
O222        O  0.11221847  0.63412654  0.84240638    -0.82800
C223        C  0.10159925  0.64901647  0.84958098     0.97700
O224        O  0.11025762  0.66628879  0.85372367    -0.82900
O225        O  0.13414211  0.65805133  0.88834421    -0.85500
C226        C  0.14851533  0.65029218  0.89925162     1.02200
O227        O  0.16582463  0.64550068  0.89099138    -0.78300
O228        O  0.15801870  0.61127445  0.86632593    -0.78500
C229        C  0.15069088  0.60061546  0.85152098     1.02100
O230        O  0.16456626  0.64311834  0.81134260    -0.85800
O231        O  0.12905086  0.66634502  0.81602005    -0.82900
C232        C  0.13653375  0.68435602  0.81910979     0.97700
O233        O  0.14512148  0.68864873  0.83622327    -0.82900
O234        O  0.16712184  0.68380592  0.87234354    -0.85500
C235        C  0.18521271  0.68056462  0.86520316     1.02200
O236        O  0.18955668  0.66329304  0.85698048    -0.78300
O237        O  0.18470709  0.62776663  0.83422797    -0.78500
C238        C  0.18171674  0.63478439  0.81602304     1.02100
Cr239      Cr  0.13887012  0.63896590  0.82776178     1.93700
Cr240      Cr  0.13991122  0.67244279  0.86178800     1.93200
Cr241      Cr  0.17280960  0.63785649  0.86138008     1.39100
O242        O  0.15044996  0.64963464  0.85041083    -1.23500
O243        O  0.39453941  0.66611018  0.63921673    -0.85800
O244        O  0.36943564  0.65729140  0.60542548    -0.82800
C245        C  0.35471799  0.64930262  0.59510927     0.97700
O246        O  0.33782861  0.64435798  0.60406434    -0.82900
O247        O  0.34718100  0.61076263  0.62891773    -0.85500
C248        C  0.35499482  0.60041226  0.64366230     1.02200
O249        O  0.35945673  0.60927846  0.66074407    -0.78300
O250        O  0.39303481  0.63432962  0.65168634    -0.78500
C251        C  0.40343945  0.64913050  0.64402652     1.02100
O252        O  0.36015934  0.68874407  0.65763385    -0.85800
O253        O  0.33685563  0.68301238  0.62236940    -0.82900
C254        C  0.31878799  0.67942328  0.62947002     0.97700
O255        O  0.31480505  0.66225180  0.63812138    -0.82900
O256        O  0.32099098  0.62710667  0.66153081    -0.85500
C257        C  0.32422934  0.63465545  0.67948779     1.02200
O258        O  0.34128768  0.64350330  0.68352553    -0.78300
O259        O  0.37664017  0.66674088  0.67776520    -0.78500
C260        C  0.36912882  0.68469595  0.67462354     1.02100
Cr261      Cr  0.36453423  0.67203674  0.63208125     1.93700
Cr262      Cr  0.33196056  0.63704842  0.63390708     1.93200
Cr263      Cr  0.36665333  0.63919148  0.66667767     1.39100
O264        O  0.35445836  0.64935970  0.64411842    -1.23500
O265        O  0.15733908  0.11089303  0.62955005    -0.85800
O266        O  0.16695060  0.14418670  0.60420536    -0.82800
C267        C  0.15000928  0.14891239  0.59522039     0.97700
O268        O  0.13526146  0.15682216  0.60551355    -0.82900
O269        O  0.11030942  0.16670224  0.63907474    -0.85500
C270        C  0.10125429  0.14986071  0.64404644     1.02200
O271        O  0.11151516  0.13510025  0.65194472    -0.78300
O272        O  0.14485619  0.10982785  0.66133579    -0.78500
C273        C  0.14946097  0.10071574  0.64440211     1.02100
O274        O  0.18348713  0.12747834  0.66195813    -0.85800
O275        O  0.18985565  0.16242645  0.63827917    -0.82900
C276        C  0.18601494  0.17940981  0.62921229     0.97700
O277        O  0.16805218  0.18280202  0.62176635    -0.82900
O278        O  0.14476706  0.18940729  0.65679527    -0.85500
C279        C  0.13592724  0.18576742  0.67393283     1.02200
O280        O  0.12841885  0.16787220  0.67760593    -0.78300
O281        O  0.16334953  0.14418983  0.68382567    -0.78500
C282        C  0.18029250  0.13510825  0.67987967     1.02100
Cr283      Cr  0.17267170  0.13719345  0.63422507     1.93700
Cr284      Cr  0.14030181  0.17218153  0.63172916     1.93200
Cr285      Cr  0.13796140  0.13995070  0.66692649     1.39100
O286        O  0.15024417  0.14971485  0.64423757    -1.23500
O287        O  0.33898675  0.39495716  0.64023519    -0.85800
O288        O  0.34760249  0.36992442  0.60652049    -0.82800
C289        C  0.35513182  0.35511543  0.59603465     0.97700
O290        O  0.35986389  0.33810651  0.60488364    -0.82900
O291        O  0.39388740  0.34732670  0.62958340    -0.85500
C292        C  0.40442605  0.35484157  0.64438809     1.02200
O293        O  0.39564152  0.35949343  0.66146304    -0.78300
O294        O  0.37084324  0.39340888  0.65252520    -0.78500
C295        C  0.35604324  0.40380993  0.64485401     1.02100
O296        O  0.31617619  0.36085402  0.65860906    -0.85800
O297        O  0.32158147  0.33746364  0.62339162    -0.82900
C298        C  0.32497782  0.31946147  0.63072890     0.97700
O299        O  0.34213750  0.31544534  0.63937409    -0.82900
O300        O  0.37760589  0.32134440  0.66229259    -0.85500
C301        C  0.37012998  0.32456700  0.68027100     1.02200
O302        O  0.36136840  0.34164715  0.68437106    -0.78300
O303        O  0.33840926  0.37716195  0.67869310    -0.78500
C304        C  0.32037021  0.36980190  0.67557337     1.02100
Cr305      Cr  0.33282361  0.36507722  0.63308393     1.93700
Cr306      Cr  0.36747412  0.33230488  0.63475557     1.93200
Cr307      Cr  0.36583727  0.36700643  0.66753348     1.39100
O308        O  0.35545618  0.35488668  0.64503210    -1.23500
O309        O  0.39327733  0.13418679  0.84146154    -0.85800
O310        O  0.35917897  0.10913913  0.83350722    -0.82800
C311        C  0.35482172  0.10031518  0.85064420     0.97700
O312        O  0.34762421  0.11082344  0.86561685    -0.82900
O313        O  0.33898454  0.14483531  0.89050999    -0.85500
C314        C  0.35609757  0.14969791  0.89907949     1.02200
O315        O  0.37072337  0.15724551  0.88834138    -0.78300
O316        O  0.39502395  0.16593663  0.85403234    -0.78500
C317        C  0.40381463  0.14895694  0.84906950     1.02100
O318        O  0.37604103  0.16648573  0.81574725    -0.85800
O319        O  0.34052246  0.14328759  0.81100058    -0.82900
C320        C  0.32357157  0.13446803  0.81553628     0.97700
O321        O  0.32083369  0.12705281  0.83360932    -0.82900
O322        O  0.31554144  0.16246773  0.85668508    -0.85500
C323        C  0.31972550  0.17964335  0.86522132     1.02200
O324        O  0.33789195  0.18316682  0.87209933    -0.78300
O325        O  0.36055026  0.18873913  0.83643460    -0.78500
C326        C  0.36891694  0.18455546  0.81917427     1.02100
Cr327      Cr  0.36637327  0.13900937  0.82720753     1.93700
Cr328      Cr  0.33251244  0.13721538  0.86083380     1.93200
Cr329      Cr  0.36529754  0.17199808  0.86182733     1.39100
O330        O  0.35483442  0.14933267  0.85004539    -1.23500
O331        O  0.11032632  0.35965826  0.83314116    -0.85800
O332        O  0.13525801  0.39340771  0.84307163    -0.82800
C333        C  0.15024839  0.40372261  0.85054474     0.97700
O334        O  0.16731634  0.39474057  0.85478697    -0.82900
O335        O  0.15838970  0.36962450  0.88841902    -0.85500
C336        C  0.15031306  0.35494553  0.89870589     1.02200
O337        O  0.14547114  0.33798566  0.88976557    -0.78300
O338        O  0.11191985  0.34692066  0.86474433    -0.78500
C339        C  0.10147158  0.35475433  0.85008786     1.02100
O340        O  0.14471526  0.34225580  0.81021040    -0.85800
O341        O  0.16769618  0.37746422  0.81663200    -0.82900
C342        C  0.18561041  0.36970417  0.81940224     0.97700
O343        O  0.18986060  0.36057598  0.83626272    -0.82900
O344        O  0.18429680  0.33722914  0.87161477    -0.85500
C345        C  0.18083331  0.31920149  0.86439298     1.02200
O346        O  0.16376076  0.31520332  0.85558517    -0.78300
O347        O  0.12890510  0.32117760  0.83191904    -0.78500
C348        C  0.13628927  0.32493288  0.81398035     1.02100
Cr349      Cr  0.14021208  0.36725149  0.82751006     1.93700
Cr350      Cr  0.17322460  0.36481202  0.86186222     1.93200
Cr351      Cr  0.13841656  0.33207562  0.85978129     1.39100
O352        O  0.15054337  0.35474732  0.84980952    -1.23500
O353        O  0.84832200  0.86926287  0.38723266    -0.85800
O354        O  0.83858750  0.89418346  0.35353513    -0.82800
C355        C  0.85540692  0.90337560  0.34877251     0.97700
O356        O  0.87036221  0.89320438  0.34112878    -0.82900
O357        O  0.89620523  0.86019615  0.33262472    -0.85500
C358        C  0.90491019  0.85546574  0.34973347     1.02200
O359        O  0.89452417  0.84709199  0.36417122    -0.78300
O360        O  0.86067515  0.83747696  0.38873004    -0.78500
C361        C  0.85601946  0.85448365  0.39764064     1.02100
O362        O  0.82267875  0.83631864  0.37062542    -0.85800
O363        O  0.81642777  0.85959335  0.33548957    -0.82900
C364        C  0.82042159  0.86814636  0.31827530     0.97700
O365        O  0.83838344  0.87560504  0.31480125    -0.82900
O366        O  0.86265328  0.84115525  0.30923393    -0.85500
C367        C  0.87149451  0.82414570  0.31338126     1.02200
O368        O  0.87876014  0.82093495  0.33142760    -0.78300
O369        O  0.84318498  0.81468449  0.35407838    -0.78500
C370        C  0.82602625  0.81850053  0.36281514     1.02100
Cr371      Cr  0.83329172  0.86413381  0.36081391     1.93700
Cr372      Cr  0.86617367  0.86660221  0.32618601     1.93200
Cr373      Cr  0.86834242  0.83179192  0.35886722     1.39100
O374        O  0.85601684  0.85426451  0.34865977    -1.23500
O375        O  0.83822288  0.64410567  0.10411794    -0.85800
O376        O  0.84690719  0.61044637  0.12934474    -0.82800
C377        C  0.85460427  0.60008423  0.14416242     0.97700
O378        O  0.85946309  0.60905145  0.16107960    -0.82900
O379        O  0.89354688  0.63351188  0.15141681    -0.85500
C380        C  0.90408449  0.64822492  0.14372411     1.02200
O381        O  0.89533149  0.66530953  0.13912073    -0.78300
O382        O  0.87019315  0.65611248  0.10549277    -0.78500
C383        C  0.85525268  0.64860174  0.09515173     1.02100
O384        O  0.81573432  0.66284724  0.13827156    -0.85800
O385        O  0.82123969  0.62771621  0.16190208    -0.82900
C386        C  0.82480627  0.63522340  0.17981962     0.97700
O387        O  0.84208171  0.64371941  0.18368672    -0.82900
O388        O  0.87752661  0.66643164  0.17740595    -0.85500
C389        C  0.87013219  0.68442439  0.17413444     1.02200
O390        O  0.86136234  0.68850176  0.15705087    -0.78300
O391        O  0.83807285  0.68267823  0.12182084    -0.78500
C392        C  0.82008536  0.67982010  0.12939614     1.02100
Cr393      Cr  0.83227418  0.63715998  0.13411875     1.93700
Cr394      Cr  0.86724733  0.63888649  0.16664669     1.93200
Cr395      Cr  0.86549754  0.67141521  0.13179424     1.39100
O396        O  0.85506184  0.64907176  0.14411411    -1.23500
O397        O  0.60926519  0.83770944  0.14043945    -0.85800
O398        O  0.63425977  0.84607381  0.10652091    -0.82800
C399        C  0.64914849  0.85331465  0.09593443     0.97700
O400        O  0.66624438  0.85798667  0.10467465    -0.82900
O401        O  0.65743134  0.89255216  0.12871220    -0.85500
C402        C  0.64969418  0.90330511  0.14324072     1.02200
O403        O  0.64489840  0.89478969  0.16040335    -0.78300
O404        O  0.61108597  0.86988366  0.15171842    -0.78500
C405        C  0.60052238  0.85492110  0.14460308     1.02100
O406        O  0.64344379  0.81521489  0.15896177    -0.85800
O407        O  0.66664521  0.82016449  0.12343217    -0.82900
C408        C  0.68469827  0.82345483  0.13070848     0.97700
O409        O  0.68886854  0.84061390  0.13932877    -0.82900
O410        O  0.68322107  0.87658682  0.16180227    -0.85500
C411        C  0.67973112  0.86959130  0.17992903     1.02200
O412        O  0.66257865  0.86098797  0.18403784    -0.78300
O413        O  0.62728451  0.83787533  0.17868191    -0.78500
C414        C  0.63479962  0.81983042  0.17598749     1.02100
Cr415      Cr  0.63913974  0.83153040  0.13319563     1.93700
Cr416      Cr  0.67219844  0.86605369  0.13437317     1.93200
Cr417      Cr  0.63736042  0.86512530  0.16699799     1.39100
O418        O  0.64951158  0.85430678  0.14478409    -1.23500
O419        O  0.61068747  0.66589995  0.35451982    -0.85800
O420        O  0.63492312  0.65706019  0.38880348    -0.82800
C421        C  0.64934530  0.64917688  0.39955632     0.97700
O422        O  0.66646091  0.64421706  0.39105056    -0.82900
O423        O  0.65731510  0.61040903  0.36616051    -0.85500
C424        C  0.64991246  0.60000132  0.35121294     1.02200
O425        O  0.64591135  0.60881864  0.33398351    -0.78300
O426        O  0.61216327  0.63420776  0.34173439    -0.78500
C427        C  0.60174286  0.64902672  0.34936871     1.02100
O428        O  0.64544705  0.68845371  0.33688808    -0.85800
O429        O  0.66816865  0.68260465  0.37246710    -0.82900
C430        C  0.68619218  0.67893699  0.36527624     0.97700
O431        O  0.69016260  0.66156831  0.35704895    -0.82900
O432        O  0.68444922  0.62616745  0.33413956    -0.85500
C433        C  0.68197523  0.63387887  0.31615353     1.02200
O434        O  0.66513332  0.64286632  0.31158558    -0.78300
O435        O  0.62979076  0.66635312  0.31615124    -0.78500
C436        C  0.63699459  0.68439001  0.31963907     1.02100
Cr437      Cr  0.64053912  0.67172645  0.36228495     1.93700
Cr438      Cr  0.67286198  0.63653806  0.36134661     1.93200
Cr439      Cr  0.63915038  0.63877661  0.32762838     1.39100
O440        O  0.65071945  0.64893622  0.35052300    -1.23500
O441        O  0.63509960  0.15673384  0.10592921    -0.85800
O442        O  0.60971672  0.16595319  0.13920241    -0.82800
C443        C  0.60069922  0.14902180  0.14389188     0.97700
O444        O  0.61094183  0.13418611  0.15166520    -0.82900
O445        O  0.64438949  0.10897452  0.16087060    -0.85500
C446        C  0.64963661  0.10023205  0.14392723     1.02200
O447        O  0.65772591  0.11075893  0.12945140    -0.78300
O448        O  0.66697438  0.14454203  0.10480427    -0.78500
C449        C  0.65001805  0.14905354  0.09572810     1.02100
O450        O  0.66746449  0.18287938  0.12280497    -0.85800
O451        O  0.64369851  0.18866044  0.15774377    -0.82900
C452        C  0.63479897  0.18459584  0.17476429     0.97700
O453        O  0.62738862  0.16658271  0.17804097    -0.82900
O454        O  0.66230421  0.14303191  0.18432344    -0.85500
C455        C  0.67944787  0.13427581  0.18054110     1.02200
O456        O  0.68315491  0.12717414  0.16249987    -0.78300
O457        O  0.68921838  0.16260957  0.13947192    -0.78500
C458        C  0.68535785  0.17961449  0.13047005     1.02100
Cr459      Cr  0.63971607  0.17179668  0.13235056     1.93700
Cr460      Cr  0.63721247  0.13893171  0.16697941     1.93200
Cr461      Cr  0.67249971  0.13720006  0.13477868     1.39100
O462        O  0.64972926  0.14922627  0.14464721    -1.23500
O463        O  0.64506419  0.33782847  0.38980812    -0.85800
O464        O  0.61135281  0.34701775  0.36497652    -0.82800
C465        C  0.60090949  0.35465447  0.35020283     0.97700
O466        O  0.60974192  0.35922957  0.33313161    -0.82900
O467        O  0.63464792  0.39301327  0.34232600    -0.85500
C468        C  0.64942304  0.40338571  0.35012427     1.02200
O469        O  0.66650571  0.39452906  0.35457414    -0.78300
O470        O  0.65757439  0.36958575  0.38834939    -0.78500
C471        C  0.64977249  0.35482629  0.39872754     1.02100
O472        O  0.66295586  0.31498325  0.35549970    -0.85800
O473        O  0.62769510  0.32093675  0.33228313    -0.82900
C474        C  0.63526832  0.32418341  0.31434245     0.97700
O475        O  0.64408349  0.34126536  0.31033413    -0.82900
O476        O  0.66719056  0.37664902  0.31612713    -0.85500
C477        C  0.68514091  0.36909508  0.31928344     1.02200
O478        O  0.68920742  0.36025483  0.33632927    -0.78300
O479        O  0.68348530  0.33702064  0.37155946    -0.78500
C480        C  0.68011021  0.31903964  0.36414125     1.02100
Cr481      Cr  0.63767872  0.33192802  0.35991845     1.93700
Cr482      Cr  0.63963057  0.36663057  0.32720249     1.93200
Cr483      Cr  0.67245958  0.36463332  0.36179675     1.39100
O484        O  0.64985053  0.35447421  0.34972787    -1.23500
O485        O  0.85955131  0.16569568  0.39056469    -0.85800
O486        O  0.89341696  0.15788180  0.36514565    -0.82800
C487        C  0.90382296  0.15063670  0.35011401     0.97700
O488        O  0.89481719  0.14579861  0.33318630    -0.82900
O489        O  0.87062635  0.11121887  0.34162378    -0.85500
C490        C  0.85620122  0.10048438  0.34958061     1.02200
O491        O  0.83913257  0.10898626  0.35469953    -0.78300
O492        O  0.84793059  0.13363457  0.38865284    -0.78500
C493        C  0.85530731  0.14846145  0.39923901     1.02100
O494        O  0.84071126  0.18849654  0.35672557    -0.85800
O495        O  0.87589816  0.18393351  0.33323985    -0.82900
C496        C  0.86834407  0.18077872  0.31528757     0.97700
O497        O  0.85997942  0.16354351  0.31099789    -0.82900
O498        O  0.83748841  0.12773772  0.31623017    -0.85500
C499        C  0.81937427  0.13465667  0.31992114     1.02200
O500        O  0.81536030  0.14291406  0.33727533    -0.78300
O501        O  0.82097728  0.16576616  0.37274099    -0.78500
C502        C  0.82370778  0.18385299  0.36535739     1.02100
Cr503      Cr  0.86650575  0.17221250  0.36068860     1.93700
Cr504      Cr  0.86501329  0.13795232  0.32730761     1.93200
Cr505      Cr  0.83259349  0.13860045  0.36241182     1.39100
O506        O  0.85482017  0.14947344  0.35022908    -1.23500
O507        O  0.89613089  0.35933159  0.16074940    -0.85800
O508        O  0.87103151  0.39311227  0.15240623    -0.82800
C509        C  0.85614517  0.40349070  0.14486310     0.97700
O510        O  0.83898368  0.39465815  0.14061386    -0.82900
O511        O  0.84698629  0.37004187  0.10652291    -0.85500
C512        C  0.85482742  0.35555496  0.09582489     1.02200
O513        O  0.85999219  0.33852344  0.10437185    -0.78300
O514        O  0.89414697  0.34743888  0.12880525    -0.78500
C515        C  0.90473675  0.35511904  0.14348463     1.02100
O516        O  0.86219499  0.34097184  0.18381094    -0.85800
O517        O  0.83911579  0.37638300  0.17898899    -0.82900
C518        C  0.82106408  0.36896405  0.17614728     0.97700
O519        O  0.81654238  0.36032415  0.15910166    -0.82900
O520        O  0.82150648  0.33730671  0.12352790    -0.85500
C521        C  0.82516604  0.31921567  0.13049125     1.02200
O522        O  0.84258871  0.31510775  0.13856089    -0.78300
O523        O  0.87814851  0.32087155  0.16134008    -0.78500
C524        C  0.87070306  0.32385019  0.17937691     1.02100
Cr525      Cr  0.86636878  0.36653548  0.16724511     1.93700
Cr526      Cr  0.83278862  0.36483348  0.13331911     1.93200
Cr527      Cr  0.86780441  0.33223191  0.13403250     1.39100
O528        O  0.85572221  0.35461300  0.14475486    -1.23500
O529        O  0.10999971  0.16645261  0.35405213    -0.85800
O530        O  0.13475979  0.15742484  0.38801832    -0.82800
C531        C  0.14959944  0.14983322  0.39843962     0.97700
O532        O  0.16675793  0.14555583  0.38962521    -0.82900
O533        O  0.15872683  0.11156153  0.36469488    -0.85500
C534        C  0.15101010  0.10102259  0.34999767     1.02200
O535        O  0.14562594  0.10979909  0.33314582    -0.78300
O536        O  0.11158072  0.13465728  0.34171686    -0.78500
C537        C  0.10112999  0.14946161  0.34932970     1.02100
O538        O  0.14420772  0.18930793  0.33623542    -0.85800
O539        O  0.16705284  0.18389069  0.37177219    -0.82900
C540        C  0.18499207  0.18109216  0.36409762     0.97700
O541        O  0.18935776  0.16407952  0.35534246    -0.82900
O542        O  0.18441790  0.12852512  0.33235461    -0.85500
C543        C  0.18083624  0.13526162  0.31417514     1.02200
O544        O  0.16362674  0.14371835  0.31000097    -0.78300
O545        O  0.12850671  0.16706217  0.31562001    -0.78500
C546        C  0.13594143  0.18504896  0.31893467     1.02100
Cr547      Cr  0.13974401  0.17249280  0.36159461     1.93700
Cr548      Cr  0.17303263  0.13835304  0.35977682     1.93200
Cr549      Cr  0.13823311  0.13955972  0.32692133     1.39100
O550        O  0.15023295  0.14999564  0.34950550    -1.23500
O551        O  0.11154783  0.34761615  0.12904349    -0.85800
O552        O  0.14543910  0.33833942  0.10440136    -0.82800
C553        C  0.14996589  0.35536605  0.09547260     0.97700
O554        O  0.15747520  0.37028055  0.10587154    -0.82900
O555        O  0.16699592  0.39519243  0.13976235    -0.85500
C556        C  0.15013147  0.40422169  0.14465726     1.02200
O557        O  0.13521148  0.39387269  0.15213009    -0.78300
O558        O  0.10984479  0.36049694  0.16068831    -0.78500
C559        C  0.10113215  0.35579171  0.14356788     1.02100
O560        O  0.12766393  0.32161661  0.16173658    -0.85800
O561        O  0.16315852  0.31566678  0.13882620    -0.82900
C562        C  0.18017730  0.31965553  0.12989014     0.97700
O563        O  0.18340894  0.33759670  0.12232643    -0.82900
O564        O  0.18939929  0.36066573  0.15759362    -0.85500
C565        C  0.18545111  0.36925071  0.17480256     1.02200
O566        O  0.16753946  0.37681530  0.17823253    -0.78300
O567        O  0.14382596  0.34194797  0.18382576    -0.78500
C568        C  0.13515974  0.32483315  0.17969764     1.02100
Cr569      Cr  0.13785716  0.33255795  0.13424225     1.93700
Cr570      Cr  0.17256875  0.36524581  0.13228652     1.93200
Cr571      Cr  0.13981166  0.36735027  0.16698812     1.39100
O572        O  0.14998282  0.35514954  0.14444051    -1.23500
O573        O  0.37076318  0.11168270  0.15176737    -0.85800
O574        O  0.39488743  0.14574864  0.16190037    -0.82800
C575        C  0.40388651  0.15086317  0.14507968     0.97700
O576        O  0.39355137  0.15865855  0.13030679    -0.82900
O577        O  0.36010380  0.16736029  0.10497357    -0.85500
C578        C  0.35600269  0.15030997  0.09584153     1.02200
O579        O  0.34840265  0.13526601  0.10594249    -0.78300
O580        O  0.33909409  0.10978974  0.13914205    -0.78500
C581        C  0.35621995  0.10114227  0.14377779     1.02100
O582        O  0.33751620  0.12707899  0.17760211    -0.85800
O583        O  0.35996719  0.16268109  0.18448073    -0.82900
C584        C  0.36855724  0.17997021  0.18090797     0.97700
O585        O  0.37607095  0.18379864  0.16305767    -0.82900
O586        O  0.34097452  0.18932649  0.13933288    -0.85500
C587        C  0.32414361  0.18495644  0.13020072     1.02200
O588        O  0.32152542  0.16706572  0.12231566    -0.78300
O589        O  0.31551713  0.14338607  0.15727801    -0.78500
C590        C  0.31947441  0.13431442  0.17423331     1.02100
Cr591      Cr  0.36507544  0.13772710  0.16721306     1.93700
Cr592      Cr  0.36678695  0.17304717  0.13510041     1.93200
Cr593      Cr  0.33282875  0.13962465  0.13211428     1.39100
O594        O  0.35498268  0.15007357  0.14474116    -1.23500
O595        O  0.39527034  0.33875958  0.35567266    -0.85800
O596        O  0.37031486  0.34898725  0.38903459    -0.82800
C597        C  0.35546087  0.35683289  0.39922923     0.97700
O598        O  0.33836835  0.36095356  0.39020029    -0.82900
O599        O  0.34759578  0.39397832  0.36447285    -0.85500
C600        C  0.35548366  0.40405603  0.34956771     1.02200
O601        O  0.36016620  0.39487093  0.33269116    -0.78300
O602        O  0.39389881  0.37014170  0.34226926    -0.78500
C603        C  0.40421878  0.35557395  0.35045306     1.02100
O604        O  0.36095972  0.31551088  0.33821455    -0.85800
O605        O  0.33778460  0.32232300  0.37315647    -0.82900
C606        C  0.32002001  0.32510029  0.36504023     0.97700
O607        O  0.31588653  0.34202633  0.35602478    -0.82900
O608        O  0.32170906  0.37680834  0.33214827    -0.85500
C609        C  0.32507028  0.36893851  0.31435735     1.02200
O610        O  0.34211956  0.35996861  0.31064781    -0.78300
O611        O  0.37734237  0.33683077  0.31720251    -0.78500
C612        C  0.36971871  0.31902009  0.32100729     1.02100
Cr613      Cr  0.36538988  0.33309028  0.36308157     1.93700
Cr614      Cr  0.33260376  0.36752747  0.36003511     1.93200
Cr615      Cr  0.36745166  0.36479133  0.32744446     1.39100
O616        O  0.35525187  0.35524108  0.35025971    -1.23500
O617        O  0.13382109  0.65773587  0.10651070    -0.85800
O618        O  0.10938121  0.66614523  0.14075139    -0.82800
C619        C  0.10079458  0.64894327  0.14534763     0.97700
O620        O  0.11144971  0.63431764  0.15302017    -0.82900
O621        O  0.14580824  0.61008042  0.16172670    -0.85500
C622        C  0.14992978  0.60116048  0.14460425     1.02200
O623        O  0.15713420  0.61155639  0.12953701    -0.78300
O624        O  0.16563746  0.64552158  0.10439156    -0.78500
C625        C  0.14847082  0.65017907  0.09581023     1.02100
O626        O  0.16635945  0.68408729  0.12285238    -0.85800
O627        O  0.14372757  0.68935397  0.15845910    -0.82900
C628        C  0.13540151  0.68508590  0.17571103     0.97700
O629        O  0.12783075  0.66714332  0.17881255    -0.82900
O630        O  0.16368741  0.64474912  0.18389825    -0.85500
C631        C  0.18088226  0.63643098  0.17938105     1.02200
O632        O  0.18366407  0.62848876  0.16153417    -0.78300
O633        O  0.18887981  0.66371355  0.13833893    -0.78500
C634        C  0.18443135  0.68099095  0.13014942     1.02100
Cr635      Cr  0.13904748  0.67261119  0.13301727     1.93700
Cr636      Cr  0.13805560  0.63978289  0.16761844     1.93200
Cr637      Cr  0.17209862  0.63818617  0.13416583     1.39100
O638        O  0.14963944  0.65009955  0.14481411    -1.23500
O639        O  0.34690874  0.61091683  0.36385606    -0.85800
O640        O  0.33759238  0.64470575  0.38874662    -0.82800
C641        C  0.35450940  0.64879210  0.39808288     0.97700
O642        O  0.36978728  0.65608705  0.38808461    -0.82900
O643        O  0.39572093  0.66543254  0.35504896    -0.85500
C644        C  0.40456591  0.64845582  0.35018886     1.02200
O645        O  0.39415110  0.63386792  0.34209421    -0.78300
O646        O  0.36015173  0.60945220  0.33236217    -0.78500
C647        C  0.35497354  0.60054145  0.34923012     1.02100
O648        O  0.32205090  0.62791398  0.33083983    -0.85800
O649        O  0.31615269  0.66329915  0.35392123    -0.82900
C650        C  0.32034800  0.68023883  0.36294081     0.97700
O651        O  0.33810686  0.68294893  0.37112221    -0.82900
O652        O  0.36221411  0.68895269  0.33657769    -0.85500
C653        C  0.37079978  0.68486972  0.31939625     1.02200
O654        O  0.37824035  0.66689215  0.31607032    -0.78300
O655        O  0.34297137  0.64423951  0.30947553    -0.78500
C656        C  0.32561365  0.63588338  0.31317231     1.02100
Cr657      Cr  0.33244829  0.63759220  0.35867231     1.93700
Cr658      Cr  0.36576060  0.67163875  0.36178679     1.93200
Cr659      Cr  0.36795021  0.63929004  0.32672351     1.39100
O660        O  0.35549673  0.64940712  0.34914288    -1.23500
O661        O  0.15863601  0.89364620  0.36562120    -0.85800
O662        O  0.16738161  0.85978533  0.39054099    -0.82800
C663        C  0.15036745  0.85538619  0.39956491     0.97700
O664        O  0.13539354  0.84782274  0.38928067    -0.82900
O665        O  0.11010397  0.83887761  0.35555283    -0.85500
C666        C  0.10139519  0.85597985  0.35089827     1.02200
O667        O  0.11196753  0.87064028  0.34317932    -0.78300
O668        O  0.14597758  0.89517216  0.33392220    -0.78500
C669        C  0.15097368  0.90407360  0.35083149     1.02100
O670        O  0.18427276  0.87674286  0.33296144    -0.85800
O671        O  0.18971346  0.84133702  0.35617913    -0.82900
C672        C  0.18542355  0.82430504  0.36496211     0.97700
O673        O  0.16746405  0.82135033  0.37258043    -0.82900
O674        O  0.14409797  0.81573009  0.33738021    -0.85500
C675        C  0.13560367  0.81995194  0.32018644     1.02200
O676        O  0.12813497  0.83793077  0.31701761    -0.78300
O677        O  0.16351940  0.86089436  0.31099407    -0.78500
C678        C  0.18069137  0.86957277  0.31491963     1.02100
Cr679      Cr  0.17323225  0.86697065  0.36061131     1.93700
Cr680      Cr  0.13999056  0.83268844  0.36277864     1.93200
Cr681      Cr  0.13830011  0.86541589  0.32804273     1.39100
O682        O  0.15043361  0.85511116  0.35055498    -1.23500
O683        O  0.34738083  0.89408596  0.12868972    -0.85800
O684        O  0.33917396  0.85971119  0.10411774    -0.82800
C685        C  0.35641441  0.85520451  0.09565265     0.97700
O686        O  0.37107940  0.84782535  0.10645981    -0.82900
O687        O  0.39520403  0.83954409  0.14100043    -0.85500
C688        C  0.40382639  0.85667391  0.14571449     1.02200
O689        O  0.39317928  0.87139557  0.15320255    -0.78300
O690        O  0.35896861  0.89609577  0.16078625    -0.78500
C691        C  0.35477275  0.90470446  0.14351914     1.02100
O692        O  0.32064115  0.87781880  0.16063210    -0.85800
O693        O  0.31580366  0.84194828  0.13797988    -0.82900
C694        C  0.32027771  0.82471662  0.12966391     0.97700
O695        O  0.33845588  0.82154939  0.12267601    -0.82900
O696        O  0.36095501  0.81648854  0.15862554    -0.85500
C697        C  0.36904254  0.82097817  0.17596763     1.02200
O698        O  0.37605740  0.83913731  0.17921235    -0.78300
O699        O  0.34037717  0.86213516  0.18357532    -0.78500
C700        C  0.32334713  0.87065838  0.17879316     1.02100
Cr701      Cr  0.33250383  0.86749505  0.13364080     1.93700
Cr702      Cr  0.36565350  0.83312308  0.13306900     1.93200
Cr703      Cr  0.36627507  0.86641507  0.16742124     1.39100
O704        O  0.35490753  0.85575552  0.14463605    -1.23500
C705        C  0.19660454  0.87162104  0.29831070    -0.03800
C706        C  0.21602388  0.88091028  0.30255341    -0.09600
C707        C  0.23127013  0.88222295  0.28703623    -0.17200
C708        C  0.22732917  0.87432071  0.26708785     0.24900
C709        C  0.20798955  0.86526097  0.26264080    -0.18900
C710        C  0.19271709  0.86391610  0.27813226    -0.07800
C711        C  0.24334204  0.87498719  0.25138913    -0.14200
C712        C  0.25710037  0.87504500  0.23858938    -0.14000
C713        C  0.27386683  0.87450585  0.22369788     0.24800
C714        C  0.27071930  0.88160323  0.20332384    -0.19400
C715        C  0.28691359  0.88062494  0.18877583    -0.07900
C716        C  0.30647983  0.87246720  0.19442955    -0.03900
C717        C  0.30952846  0.86552493  0.21499559    -0.09200
C718        C  0.29332203  0.86656043  0.22951975    -0.16900
H719        H  0.21952357  0.88697683  0.31791078     0.11300
H720        H  0.24621072  0.88922857  0.29065884     0.10500
H721        H  0.20478460  0.85905702  0.24726341     0.10500
H722        H  0.17794081  0.85667182  0.27435234     0.11000
H723        H  0.25570981  0.88775683  0.19863947     0.11100
H724        H  0.28403351  0.88603423  0.17305449     0.11000
H725        H  0.32438551  0.85914987  0.21983315     0.11200
H726        H  0.29591969  0.86101648  0.24525150     0.10000
C727        C  0.37216498  0.70113598  0.30304871    -0.03800
C728        C  0.37837786  0.69591576  0.28267022    -0.09600
C729        C  0.37870124  0.71103542  0.26697023    -0.17200
C730        C  0.37291783  0.73159511  0.27139960     0.24900
C731        C  0.36690151  0.73699327  0.29167532    -0.18900
C732        C  0.36647197  0.72187335  0.30739110    -0.07800
C733        C  0.37287408  0.74703215  0.25506150    -0.14200
C734        C  0.37264796  0.75979083  0.24123077    -0.14000
C735        C  0.37215640  0.77500327  0.22468883     0.24800
C736        C  0.37932400  0.79529538  0.22826589    -0.19400
C737        C  0.37853912  0.81017228  0.21235036    -0.07900
C738        C  0.37052438  0.80497134  0.19258658    -0.03900
C739        C  0.36347438  0.78448694  0.18909499    -0.09200
C740        C  0.36430764  0.76962239  0.20503969    -0.16900
H741        H  0.38267913  0.68007168  0.27876864     0.11300
H742        H  0.38332317  0.70664782  0.25133035     0.10500
H743        H  0.36237767  0.75284989  0.29530207     0.10500
H744        H  0.36157230  0.72639278  0.32290068     0.11000
H745        H  0.38541617  0.79966214  0.24340382     0.11100
H746        H  0.38403468  0.82579938  0.21559503     0.11000
H747        H  0.35719171  0.77997247  0.17408853     0.11200
H748        H  0.35871008  0.75396611  0.20207559     0.10000
C749        C  0.30443029  0.69690280  0.36428568    -0.03800
C750        C  0.30925581  0.71611372  0.37372722    -0.09600
C751        C  0.29435986  0.73196638  0.37480761    -0.17200
C752        C  0.27444315  0.72886464  0.36648776     0.24900
C753        C  0.26950197  0.70984852  0.35698460    -0.18900
C754        C  0.28438747  0.69396402  0.35585958    -0.07800
C755        C  0.25916886  0.74526775  0.36752332    -0.14200
C756        C  0.24647231  0.75911227  0.36805070    -0.14000
C757        C  0.23137688  0.77571101  0.36801967     0.24800
C758        C  0.21141084  0.77241000  0.37615330    -0.19400
C759        C  0.19653595  0.78831729  0.37543363    -0.07900
C760        C  0.20144247  0.80775896  0.36652938    -0.03900
C761        C  0.22163273  0.81098904  0.35859563    -0.09200
C762        C  0.23648186  0.79506608  0.35936038    -0.16900
H763        H  0.32457344  0.71893854  0.38023282     0.11300
H764        H  0.29839153  0.74665389  0.38210894     0.10500
H765        H  0.25415265  0.70730930  0.35041071     0.10500
H766        H  0.28021090  0.67941447  0.34838412     0.11000
H767        H  0.20727292  0.75747903  0.38286202     0.11100
H768        H  0.18112730  0.78530047  0.38162515     0.11000
H769        H  0.22590638  0.82574726  0.35161696     0.11200
H770        H  0.25188630  0.79778517  0.35299732     0.10000
C771        C  0.20042025  0.69765370  0.12891860    -0.03800
C772        C  0.22071601  0.69426684  0.13653027    -0.09600
C773        C  0.23566534  0.71013360  0.13570086    -0.17200
C774        C  0.23056449  0.72960763  0.12730716     0.24900
C775        C  0.21038805  0.73317050  0.11982046    -0.18900
C776        C  0.19541567  0.71732438  0.12060785    -0.07800
C777        C  0.24598473  0.74594995  0.12649842    -0.14200
C778        C  0.25885715  0.75967884  0.12611999    -0.14000
C779        C  0.27409800  0.77620597  0.12629378     0.24800
C780        C  0.26922873  0.79540760  0.13542181    -0.19400
C781        C  0.28414409  0.81128799  0.13624977    -0.07900
C782        C  0.30420329  0.80818573  0.12795126    -0.03900
C783        C  0.30889688  0.78889798  0.11858627    -0.09200
C784        C  0.29393289  0.77303030  0.11777220    -0.16900
H785        H  0.22504537  0.67937203  0.14316749     0.11300
H786        H  0.25120091  0.70721385  0.14163334     0.10500
H787        H  0.20621634  0.74820749  0.11338627     0.10500
H788        H  0.17990206  0.72051314  0.11478547     0.11000
H789        H  0.25394377  0.79804700  0.14208882     0.11100
H790        H  0.28002995  0.82590977  0.14360642     0.11000
H791        H  0.32419019  0.78598458  0.11207482     0.11200
H792        H  0.29789835  0.75822964  0.11067621     0.10000
C793        C  0.13441396  0.70106850  0.19234714    -0.03800
C794        C  0.12522433  0.69642219  0.21171518    -0.09600
C795        C  0.12498358  0.71125342  0.22768747    -0.17200
C796        C  0.13390775  0.73090484  0.22455000     0.24900
C797        C  0.14301988  0.73571081  0.20532039    -0.18900
C798        C  0.14328097  0.72090532  0.18931385    -0.07800
C799        C  0.13377966  0.74608190  0.24109255    -0.14200
C800        C  0.13367445  0.75874181  0.25499660    -0.14000
C801        C  0.13364134  0.77390886  0.27155100     0.24800
C802        C  0.12552780  0.79384432  0.26808849    -0.19400
C803        C  0.12584351  0.80872821  0.28401493    -0.07900
C804        C  0.13432305  0.80386424  0.30365408    -0.03900
C805        C  0.14227640  0.78370960  0.30703992    -0.09200
C806        C  0.14191804  0.76884437  0.29108744    -0.16900
H807        H  0.11835269  0.68127966  0.21459202     0.11300
H808        H  0.11790850  0.70735738  0.24251993     0.10500
H809        H  0.14999942  0.75086547  0.20272660     0.10500
H810        H  0.15057426  0.72493792  0.17463353     0.11000
H811        H  0.11909066  0.79793967  0.25302202     0.11100
H812        H  0.11967453  0.82410856  0.28086345     0.11000
H813        H  0.14896265  0.77947820  0.32194924     0.11200
H814        H  0.14823981  0.75345807  0.29394374     0.10000
C815        C  0.30934586  0.63539761  0.29687684    -0.03800
C816        C  0.29013075  0.62555178  0.30069933    -0.09600
C817        C  0.27439186  0.62589403  0.28567808    -0.17200
C818        C  0.27763214  0.63607405  0.26668681     0.24900
C819        C  0.29671586  0.64582979  0.26266834    -0.18900
C820        C  0.31250735  0.64549451  0.27766632    -0.07800
C821        C  0.26130829  0.63650729  0.25139074    -0.14200
C822        C  0.24738693  0.63658191  0.23881939    -0.14000
C823        C  0.23063777  0.63637221  0.22398295     0.24800
C824        C  0.23404531  0.62886287  0.20380588    -0.19400
C825        C  0.21776236  0.62859800  0.18936177    -0.07900
C826        C  0.19785539  0.63589585  0.19494386    -0.03900
C827        C  0.19457807  0.64337885  0.21529665    -0.09200
C828        C  0.21088347  0.64357405  0.22973028    -0.16900
H829        H  0.28718650  0.61772189  0.31535350     0.11300
H830        H  0.25965399  0.61830288  0.28891814     0.10500
H831        H  0.29934895  0.65377070  0.24800367     0.10500
H832        H  0.32708174  0.65333008  0.27431402     0.11000
H833        H  0.24930065  0.62326272  0.19922102     0.11100
H834        H  0.22082131  0.62288259  0.17377738     0.11000
H835        H  0.17945355  0.64916833  0.22004158     0.11200
H836        H  0.20810390  0.64939785  0.24533755     0.10000
C837        C  0.35839811  0.42687819  0.35151426    -0.03800
C838        C  0.36689520  0.43851471  0.33498019    -0.09600
C839        C  0.36868997  0.46018592  0.33651079    -0.17200
C840        C  0.36204434  0.47050575  0.35455017     0.24900
C841        C  0.35388979  0.45904104  0.37120298    -0.18900
C842        C  0.35209645  0.43737693  0.36972494    -0.07800
C843        C  0.36270936  0.49290755  0.35557222    -0.14200
C844        C  0.36244699  0.51169827  0.35564145    -0.14000
C845        C  0.36136847  0.53408097  0.35455816     0.24800
C846        C  0.35261127  0.54553840  0.37093388    -0.19400
C847        C  0.35076455  0.56721599  0.36937669    -0.07900
C848        C  0.35762605  0.57769541  0.35136047    -0.03900
C849        C  0.36657897  0.56602513  0.33508652    -0.09200
C850        C  0.36842172  0.54438738  0.33669247    -0.16900
H851        H  0.37189642  0.43092166  0.32076267     0.11300
H852        H  0.37497277  0.46892516  0.32349485     0.10500
H853        H  0.34863296  0.46687086  0.38520885     0.10500
H854        H  0.34548215  0.42889377  0.38273256     0.11000
H855        H  0.34700899  0.53770173  0.38480454     0.11100
H856        H  0.34375707  0.57572292  0.38215574     0.11000
H857        H  0.37199422  0.57358244  0.32100066     0.11200
H858        H  0.37514375  0.53566788  0.32388956     0.10000
C859        C  0.35865622  0.07838168  0.14078867    -0.03800
C860        C  0.34254943  0.06663531  0.13161619    -0.09600
C861        C  0.34418471  0.04498256  0.12997344    -0.17200
C862        C  0.36191582  0.03474361  0.13743942     0.24900
C863        C  0.37821177  0.04630944  0.14622581    -0.18900
C864        C  0.37663093  0.06800229  0.14785875    -0.07800
C865        C  0.36289931  0.01232729  0.13686168    -0.14200
C866        C  0.36278599  0.99352753  0.13702502    -0.14000
C867        C  0.36172052  0.97112646  0.13806436     0.24800
C868        C  0.36934747  0.96070377  0.15562121    -0.19400
C869        C  0.36738395  0.93906673  0.15720929    -0.07900
C870        C  0.35775379  0.92750554  0.14122125    -0.03900
C871        C  0.35042639  0.93808181  0.12346457    -0.09200
C872        C  0.35235834  0.95976295  0.12194244    -0.16900
H873        H  0.32851816  0.07413089  0.12599344     0.11300
H874        H  0.33145942  0.03619059  0.12318134     0.10500
H875        H  0.39199066  0.03853666  0.15211196     0.10500
H876        H  0.38928633  0.07658252  0.15501763     0.11000
H877        H  0.37657191  0.96933230  0.16822120     0.11100
H878        H  0.37322738  0.93142141  0.17107156     0.11000
H879        H  0.34288612  0.92966107  0.11092524     0.11200
H880        H  0.34631481  0.96768559  0.10831396     0.10000
C881        C  0.37116671  0.30220517  0.30529750    -0.03800
C882        C  0.38539373  0.30359930  0.28868095    -0.09600
C883        C  0.38621576  0.28794615  0.27351081    -0.17200
C884        C  0.37273301  0.27082121  0.27467293     0.24900
C885        C  0.35859925  0.26927207  0.29121102    -0.18900
C886        C  0.35787113  0.28480219  0.30648206    -0.07800
C887        C  0.37311072  0.25501004  0.25874155    -0.14200
C888        C  0.37295399  0.24179467  0.24536690    -0.14000
C889        C  0.37226366  0.22607262  0.22935847     0.24800
C890        C  0.36077894  0.20779155  0.23248509    -0.19400
C891        C  0.35973710  0.19268317  0.21680567    -0.07900
C892        C  0.37012764  0.19571106  0.19772489    -0.03900
C893        C  0.38172182  0.21409612  0.19476959    -0.09200
C894        C  0.38279269  0.22915239  0.21050553    -0.16900
H895        H  0.39586646  0.31677861  0.28741498     0.11300
H896        H  0.39723534  0.28928959  0.26078729     0.10500
H897        H  0.34804330  0.25612587  0.29223053     0.10500
H898        H  0.34664492  0.28338004  0.31901008     0.11000
H899        H  0.35252789  0.20526559  0.24700095     0.11100
H900        H  0.35061896  0.17874235  0.21954506     0.11000
H901        H  0.38992061  0.21687900  0.18028278     0.11200
H902        H  0.39172433  0.24324972  0.20791616     0.10000
C903        C  0.14719741  0.57828919  0.14281234    -0.03800
C904        C  0.14062166  0.56658909  0.16017846    -0.09600
C905        C  0.13919276  0.54489074  0.15901986    -0.17200
C906        C  0.14423024  0.53454762  0.14050357     0.24900
C907        C  0.15034238  0.54605028  0.12299203    -0.18900
C908        C  0.15181388  0.56779283  0.12411612    -0.07800
C909        C  0.14391624  0.51211413  0.13980480    -0.14200
C910        C  0.14433031  0.49331909  0.13984409    -0.14000
C911        C  0.14550843  0.47091126  0.14041336     0.24800
C912        C  0.12838301  0.45916039  0.14708396    -0.19400
C913        C  0.12974708  0.43742851  0.14815389    -0.07900
C914        C  0.14830619  0.42715234  0.14257082    -0.03900
C915        C  0.16537910  0.43910902  0.13572919    -0.09200
C916        C  0.16397646  0.46083066  0.13469005    -0.16900
H917        H  0.13692696  0.57415620  0.17480649     0.11300
H918        H  0.13446614  0.53615555  0.17267998     0.10500
H919        H  0.15428696  0.53819560  0.10857439     0.10500
H920        H  0.15686644  0.57633855  0.11046818     0.11000
H921        H  0.11402745  0.46680184  0.15161560     0.11100
H922        H  0.11634237  0.42870201  0.15354317     0.11000
H923        H  0.17991484  0.43170974  0.13141107     0.11200
H924        H  0.17735746  0.46977428  0.12957532     0.10000
C925        C  0.30909539  0.37053518  0.29775837    -0.03800
C926        C  0.28998121  0.38057157  0.30159464    -0.09600
C927        C  0.27474663  0.38164522  0.28603984    -0.17200
C928        C  0.27838955  0.37271685  0.26647332     0.24900
C929        C  0.29739363  0.36281369  0.26245926    -0.18900
C930        C  0.31265168  0.36171695  0.27797990    -0.07800
C931        C  0.26247512  0.37330151  0.25066801    -0.14200
C932        C  0.24909502  0.37326734  0.23746885    -0.14000
C933        C  0.23318934  0.37259999  0.22165738     0.24800
C934        C  0.23676847  0.36175119  0.20308474    -0.19400
C935        C  0.22128699  0.36079773  0.18779386    -0.07900
C936        C  0.20194990  0.37067300  0.19089103    -0.03900
C937        C  0.19848397  0.38154674  0.20962591    -0.09200
C938        C  0.21403199  0.38251351  0.22489237    -0.16900
H939        H  0.28673724  0.38747930  0.31664775     0.11300
H940        H  0.26006802  0.38931188  0.28932597     0.10500
H941        H  0.30036240  0.35580772  0.24738197     0.10500
H942        H  0.32717054  0.35384011  0.27452730     0.11000
H943        H  0.25150806  0.35395280  0.20044950     0.11100
H944        H  0.22441959  0.35219533  0.17360963     0.11000
H945        H  0.18376317  0.38926994  0.21250450     0.11200
H946        H  0.21108096  0.39091363  0.23924417     0.10000
C947        C  0.30741185  0.20074364  0.12850621    -0.03800
C948        C  0.30984246  0.22065332  0.13738683    -0.09600
C949        C  0.29366844  0.23522271  0.13639208    -0.17200
C950        C  0.27489174  0.23009237  0.12652466     0.24900
C951        C  0.27239144  0.21039769  0.11751750    -0.18900
C952        C  0.28852499  0.19581393  0.11848226    -0.07800
C953        C  0.25810266  0.24493204  0.12587610    -0.14200
C954        C  0.24410418  0.25744953  0.12565739    -0.14000
C955        C  0.22771526  0.27274179  0.12590710     0.24800
C956        C  0.20827266  0.26786321  0.13451274    -0.19400
C957        C  0.19266959  0.28303683  0.13557558    -0.07900
C958        C  0.19633284  0.30329679  0.12800654    -0.03900
C959        C  0.21582920  0.30793489  0.11909769    -0.09200
C960        C  0.23140169  0.29275194  0.11808541    -0.16900
H961        H  0.32415789  0.22491208  0.14526148     0.11300
H962        H  0.29575523  0.25042904  0.14343506     0.10500
H963        H  0.25791394  0.20625828  0.10985978     0.10500
H964        H  0.28612625  0.18061937  0.11153632     0.11000
H965        H  0.20525800  0.25241791  0.14062186     0.11100
H966        H  0.17782725  0.27896235  0.14251072     0.11000
H967        H  0.21916052  0.32337102  0.11315816     0.11200
H968        H  0.24640939  0.29669747  0.11141540     0.10000
C969        C  0.14914089  0.07810872  0.35198991    -0.03800
C970        C  0.15830259  0.06759282  0.36891268    -0.09600
C971        C  0.15741392  0.04585032  0.37018435    -0.17200
C972        C  0.14728905  0.03435608  0.35464625     0.24900
C973        C  0.13797164  0.04468443  0.33785726    -0.18900
C974        C  0.13890282  0.06640604  0.33650710    -0.07800
C975        C  0.14680427  0.01195404  0.35565960    -0.14200
C976        C  0.14663980  0.99316549  0.35585346    -0.14000
C977        C  0.14680334  0.97074850  0.35508864     0.24800
C978        C  0.14098316  0.96051351  0.33673993    -0.19400
C979        C  0.14191926  0.93880027  0.33553762    -0.07900
C980        C  0.14877494  0.92697999  0.35269517    -0.03900
C981        C  0.15428292  0.93738321  0.37121430    -0.09200
C982        C  0.15329951  0.95914505  0.37238421    -0.16900
H983        H  0.16643009  0.07612919  0.38099840     0.11300
H984        H  0.16476019  0.03799910  0.38320227     0.10500
H985        H  0.13013580  0.03593644  0.32571612     0.10500
H986        H  0.13172655  0.07401893  0.32326482     0.11000
H987        H  0.13595762  0.96934231  0.32324775     0.11100
H988        H  0.13759860  0.93130839  0.32104212     0.11000
H989        H  0.15961751  0.92873993  0.38469262     0.11200
H990        H  0.15785095  0.96692154  0.38666742     0.10000
C991        C  0.20090062  0.19775510  0.36552158    -0.03800
C992        C  0.19594453  0.21722222  0.37434243    -0.09600
C993        C  0.21079972  0.23316794  0.37500423    -0.17200
C994        C  0.23077221  0.22986241  0.36689576     0.24900
C995        C  0.23587845  0.21053068  0.35820618    -0.18900
C996        C  0.22105893  0.19457715  0.35750202    -0.07800
C997        C  0.24597841  0.24634214  0.36725365    -0.14200
C998        C  0.25879793  0.26007808  0.36725814    -0.14000
C999        C  0.27409318  0.27647396  0.36699949     0.24800
C1000       C  0.29422406  0.27280455  0.37453481    -0.19400
C1001       C  0.30912220  0.28870867  0.37416271    -0.07900
C1002       C  0.30405844  0.30849202  0.36618569    -0.03900
C1003       C  0.28377809  0.31201081  0.35862635    -0.09200
C1004       C  0.26890070  0.29610138  0.35906920    -0.16900
H1005       H  0.18054198  0.22020127  0.38055999     0.11300
H1006       H  0.20667495  0.24809709  0.38173123     0.10500
H1007       H  0.25128926  0.20782167  0.35186067     0.10500
H1008       H  0.22535180  0.17980888  0.35055304     0.11000
H1009       H  0.29842544  0.25763408  0.38063136     0.11100
H1010       H  0.32464486  0.28545108  0.37992288     0.11000
H1011       H  0.27941910  0.32702967  0.35229264     0.11200
H1012       H  0.25337305  0.29908647  0.35315021     0.10000
C1013       C  0.30295946  0.13193191  0.19016468    -0.03800
C1014       C  0.30698144  0.12123608  0.20888729    -0.09600
C1015       C  0.29162780  0.11973129  0.22428109    -0.17200
C1016       C  0.27208574  0.12887886  0.22117088     0.24900
C1017       C  0.26785722  0.13932636  0.20250549    -0.18900
C1018       C  0.28316682  0.14083841  0.18708470    -0.07800
C1019       C  0.25653558  0.12809455  0.23731075    -0.14200
C1020       C  0.24338316  0.12825101  0.25072657    -0.14000
C1021       C  0.22752961  0.12936454  0.26655182     0.24800
C1022       C  0.20764263  0.13674477  0.26151453    -0.19400
C1023       C  0.19238697  0.13853917  0.27696542    -0.07900
C1024       C  0.19682555  0.13291713  0.29769192    -0.03900
C1025       C  0.21681794  0.12532151  0.30256470    -0.09200
C1026       C  0.23206854  0.12360056  0.28708776    -0.16900
H1027       H  0.32205097  0.11420853  0.21173772     0.11300
H1028       H  0.29507297  0.11162913  0.23868790     0.10500
H1029       H  0.25279096  0.14649972  0.19995921     0.10500
H1030       H  0.27958517  0.14920972  0.17287560     0.11000
H1031       H  0.20397728  0.14128168  0.24566888     0.11100
H1032       H  0.17715590  0.14441152  0.27269433     0.11000
H1033       H  0.22075205  0.12091562  0.31837242     0.11200
H1034       H  0.24743706  0.11792902  0.29117105     0.10000
C1035       C  0.13477140  0.20119690  0.30251216    -0.03800
C1036       C  0.12750892  0.19616935  0.28242742    -0.09600
C1037       C  0.12690433  0.21133070  0.26679089    -0.17200
C1038       C  0.13349609  0.23168707  0.27102824     0.24900
C1039       C  0.14074525  0.23683482  0.29094552    -0.18900
C1040       C  0.14141875  0.22170042  0.30658739    -0.07800
C1041       C  0.13288892  0.24731463  0.25497174    -0.14200
C1042       C  0.13261325  0.26067053  0.24177235    -0.14000
C1043       C  0.13270059  0.27690505  0.22631722     0.24800
C1044       C  0.14114115  0.29642956  0.23112812    -0.19400
C1045       C  0.14167160  0.31213033  0.21605263    -0.07900
C1046       C  0.13372795  0.30850095  0.19592616    -0.03900
C1047       C  0.12509542  0.28886907  0.19129164    -0.09200
C1048       C  0.12460602  0.27317591  0.20640521    -0.16900
H1049       H  0.12243854  0.18049482  0.27874723     0.11300
H1050       H  0.12132747  0.20716928  0.25139831     0.10500
H1051       H  0.14591941  0.25254264  0.29437610     0.10500
H1052       H  0.14716939  0.22605443  0.32185360     0.11000
H1053       H  0.14745868  0.29947293  0.24649654     0.11100
H1054       H  0.14847203  0.32704063  0.22011034     0.11000
H1055       H  0.11893494  0.28555198  0.17592819     0.11200
H1056       H  0.11805486  0.25810087  0.20251651     0.10000
C1057       C  0.92749556  0.35838669  0.14099343    -0.03800
C1058       C  0.93912519  0.36789021  0.15700174    -0.09600
C1059       C  0.96074830  0.36996672  0.15527979    -0.17200
C1060       C  0.97110708  0.36260272  0.13756006     0.24900
C1061       C  0.95965219  0.35348295  0.12135651    -0.18900
C1062       C  0.93798121  0.35142938  0.12301890    -0.07800
C1063       C  0.99353795  0.36362082  0.13649955    -0.14200
C1064       C  0.01235623  0.36376132  0.13652154    -0.14000
C1065       C  0.03479868  0.36295047  0.13746350     0.24800
C1066       C  0.04594732  0.35125246  0.12280826    -0.19400
C1067       C  0.06760505  0.34935683  0.12447511    -0.07900
C1068       C  0.07840505  0.35899959  0.14096696    -0.03900
C1069       C  0.06712179  0.37107342  0.15538489    -0.09200
C1070       C  0.04547438  0.37305137  0.15360915    -0.16900
H1071       H  0.93155628  0.37348401  0.17101113     0.11300
H1072       H  0.96943072  0.37702861  0.16793556     0.10500
H1073       H  0.96749929  0.34767323  0.10758032     0.10500
H1074       H  0.92950401  0.34404400  0.11042265     0.11000
H1075       H  0.03786220  0.34330419  0.11028618     0.11100
H1076       H  0.07582042  0.33991760  0.11314963     0.11000
H1077       H  0.07499227  0.37879266  0.16817391     0.11200
H1078       H  0.03702317  0.38215018  0.16505142     0.10000
C1079       C  0.92680879  0.14864396  0.35180871    -0.03800
C1080       C  0.93748712  0.15596542  0.36953832    -0.09600
C1081       C  0.95925984  0.15481575  0.37062876    -0.17200
C1082       C  0.97065053  0.14628573  0.35407388     0.24900
C1083       C  0.96014969  0.13883534  0.33646351    -0.18900
C1084       C  0.93841634  0.14000031  0.33531684    -0.07800
C1085       C  0.99310801  0.14550879  0.35490127    -0.14200
C1086       C  0.01192836  0.14519274  0.35500522    -0.14000
C1087       C  0.03440625  0.14554777  0.35455031     0.24800
C1088       C  0.04519710  0.16227197  0.36347323    -0.19400
C1089       C  0.06692228  0.16328102  0.36214796    -0.07900
C1090       C  0.07823042  0.14753077  0.35187778    -0.03900
C1091       C  0.06729839  0.13052917  0.34333454    -0.09200
C1092       C  0.04552129  0.12959421  0.34461789    -0.16900
H1093       H  0.92904937  0.16280058  0.38245878     0.11300
H1094       H  0.96721038  0.16070730  0.38431764     0.10500
H1095       H  0.96877903  0.13224921  0.32352776     0.10500
H1096       H  0.93072153  0.13425848  0.32143128     0.11000
H1097       H  0.03679144  0.17471131  0.37120138     0.11100
H1098       H  0.07484196  0.17654914  0.36895112     0.11000
H1099       H  0.07552219  0.11818910  0.33527963     0.11200
H1100       H  0.03734163  0.11658252  0.33761180     0.10000
C1101       C  0.86959085  0.19726304  0.29919891    -0.03800
C1102       C  0.87745971  0.21712551  0.30418598    -0.09600
C1103       C  0.87833748  0.23277189  0.28905205    -0.17200
C1104       C  0.87141634  0.22877859  0.26875409     0.24900
C1105       C  0.86353398  0.20909134  0.26364709    -0.18900
C1106       C  0.86259442  0.19343106  0.27876031    -0.07800
C1107       C  0.87226638  0.24492197  0.25321725    -0.14200
C1108       C  0.87273731  0.25857783  0.24032775    -0.14000
C1109       C  0.87279495  0.27511209  0.22518363     0.24800
C1110       C  0.88272120  0.27241830  0.20594203    -0.19400
C1111       C  0.88232071  0.28837294  0.19108924    -0.07900
C1112       C  0.87199929  0.30724910  0.19534616    -0.03900
C1113       C  0.86224145  0.30984959  0.21481815    -0.09200
C1114       C  0.86263311  0.29387735  0.22960392    -0.16900
H1115       H  0.88283888  0.22061740  0.31980123     0.11300
H1116       H  0.88439022  0.24798992  0.29319060     0.10500
H1117       H  0.85807986  0.20585371  0.24799321     0.10500
H1118       H  0.85638683  0.17833693  0.27443681     0.11000
H1119       H  0.89062769  0.25793882  0.20235967     0.11100
H1120       H  0.88993982  0.28586830  0.17623874     0.11000
H1121       H  0.85407000  0.32413409  0.21854974     0.11200
H1122       H  0.85487128  0.29611237  0.24443526     0.10000
C1123       C  0.57807499  0.35731248  0.35240437    -0.03800
C1124       C  0.56781218  0.35130826  0.37084814    -0.09600
C1125       C  0.54610699  0.35274139  0.37240145    -0.17200
C1126       C  0.53439545  0.36023135  0.35559221     0.24900
C1127       C  0.54449506  0.36657252  0.33733776    -0.18900
C1128       C  0.56617115  0.36515075  0.33573991    -0.07800
C1129       C  0.51198796  0.36078257  0.35671569    -0.14200
C1130       C  0.49319099  0.36075317  0.35683376    -0.14000
C1131       C  0.47076918  0.36008651  0.35613267     0.24800
C1132       C  0.45966111  0.37555003  0.34549269    -0.19400
C1133       C  0.43793619  0.37438044  0.34401243    -0.07900
C1134       C  0.42705995  0.35762310  0.35306866    -0.03900
C1135       C  0.43835657  0.34231244  0.36396307    -0.09200
C1136       C  0.46005117  0.34356090  0.36548543    -0.16900
H1137       H  0.57650903  0.34520628  0.38395743     0.11300
H1138       H  0.53844788  0.34775473  0.38660048     0.10500
H1139       H  0.53558468  0.37236343  0.32421830     0.10500
H1140       H  0.57356554  0.36990499  0.32133381     0.11000
H1141       H  0.46781059  0.38836988  0.33811899     0.11100
H1142       H  0.42971097  0.38636237  0.33544415     0.11000
H1143       H  0.43045465  0.32923670  0.37113506     0.11200
H1144       H  0.46848702  0.33148316  0.37372558     0.10000
C1145       C  0.80691707  0.19959523  0.36691849    -0.03800
C1146       C  0.78727801  0.19414644  0.37502887    -0.09600
C1147       C  0.77112967  0.20875257  0.37561496    -0.17200
C1148       C  0.77438879  0.22897899  0.36816029     0.24900
C1149       C  0.79392656  0.23462289  0.36027508    -0.18900
C1150       C  0.81009101  0.22003729  0.35963194    -0.07800
C1151       C  0.75763199  0.24386896  0.36832566    -0.14200
C1152       C  0.74375134  0.25651777  0.36817471    -0.14000
C1153       C  0.72754735  0.27199945  0.36770239     0.24800
C1154       C  0.73172528  0.29230132  0.37447881    -0.19400
C1155       C  0.71621193  0.30754912  0.37357412    -0.07900
C1156       C  0.69628803  0.30268749  0.36580411    -0.03900
C1157       C  0.69218448  0.28218267  0.35915172    -0.09200
C1158       C  0.70772388  0.26694002  0.36012625    -0.16900
H1159       H  0.78429997  0.17852920  0.38067470     0.11300
H1160       H  0.75605427  0.20421809  0.38173442     0.10500
H1161       H  0.79661653  0.25024370  0.35446626     0.10500
H1162       H  0.82500794  0.22472054  0.35326345     0.11000
H1163       H  0.74703621  0.29639150  0.38032479     0.11100
H1164       H  0.71990024  0.32319223  0.37872989     0.11000
H1165       H  0.67701153  0.27794154  0.35308170     0.11200
H1166       H  0.70432894  0.25126950  0.35482231     0.10000
C1167       C  0.80521081  0.37065514  0.19283414    -0.03800
C1168       C  0.81091691  0.37735629  0.21293572    -0.09600
C1169       C  0.79610439  0.37834721  0.22889037    -0.17200
C1170       C  0.77539119  0.37275552  0.22496403     0.24900
C1171       C  0.76952538  0.36623935  0.20497976    -0.18900
C1172       C  0.78432908  0.36514580  0.18901668    -0.07800
C1173       C  0.76022823  0.37334855  0.24150015    -0.14200
C1174       C  0.74744445  0.37339886  0.25528274    -0.14000
C1175       C  0.73203747  0.37289351  0.27159667     0.24800
C1176       C  0.71274311  0.38264602  0.26875216    -0.19400
C1177       C  0.69753531  0.38161380  0.28434096    -0.07900
C1178       C  0.70145618  0.37081709  0.30302494    -0.03900
C1179       C  0.72098029  0.36122138  0.30580302    -0.09200
C1180       C  0.73614061  0.36224903  0.29017996    -0.16900
H1181       H  0.82688385  0.38158976  0.21641085     0.11300
H1182       H  0.80083595  0.38335195  0.24431390     0.10500
H1183       H  0.75353321  0.36186023  0.20177040     0.10500
H1184       H  0.77944098  0.35993710  0.17371926     0.11000
H1185       H  0.70938683  0.39090300  0.25441383     0.11100
H1186       H  0.68267326  0.38914879  0.28170270     0.11000
H1187       H  0.72447360  0.35272178  0.31995606     0.11200
H1188       H  0.75100226  0.35459574  0.29253112     0.10000
C1189       C  0.57784667  0.14712135  0.14130255    -0.03800
C1190       C  0.56685927  0.13074287  0.15089911    -0.09600
C1191       C  0.54510842  0.12987925  0.14979245    -0.17200
C1192       C  0.53407687  0.14524978  0.13895634     0.24900
C1193       C  0.54489942  0.16131475  0.12893236    -0.18900
C1194       C  0.56663825  0.16227880  0.13011177    -0.07800
C1195       C  0.51164630  0.14496553  0.13876053    -0.14200
C1196       C  0.49286138  0.14516133  0.13919509    -0.14000
C1197       C  0.47046984  0.14587163  0.14031837     0.24800
C1198       C  0.45889760  0.15380716  0.12362668    -0.19400
C1199       C  0.43718667  0.15512607  0.12500578    -0.07900
C1200       C  0.42677080  0.14855496  0.14315858    -0.03900
C1201       C  0.43854018  0.14036922  0.15975651    -0.09200
C1202       C  0.46023770  0.13906099  0.15833101    -0.16900
H1203       H  0.57502163  0.11889187  0.15970579     0.11300
H1204       H  0.53688132  0.11740351  0.15765575     0.10500
H1205       H  0.53651583  0.17329069  0.12049265     0.10500
H1206       H  0.57464753  0.17503638  0.12249848     0.11000
H1207       H  0.46666779  0.15915689  0.10962207     0.11100
H1208       H  0.42859587  0.16151804  0.11196535     0.11000
H1209       H  0.43101668  0.13518629  0.17394692     0.11200
H1210       H  0.46904740  0.13291990  0.17135908     0.10000
C1211       C  0.70189398  0.19565275  0.12862207    -0.03800
C1212       C  0.69777430  0.21494636  0.11904000    -0.09600
C1213       C  0.71325916  0.23027539  0.11789936    -0.17200
C1214       C  0.73304886  0.22653441  0.12628450     0.24900
C1215       C  0.73735179  0.20731805  0.13564041    -0.18900
C1216       C  0.72190754  0.19198154  0.13681440    -0.07800
C1217       C  0.74880763  0.24253791  0.12577288    -0.14200
C1218       C  0.76207988  0.25587083  0.12596007    -0.14000
C1219       C  0.77800251  0.27170127  0.12676708     0.24800
C1220       C  0.79770376  0.26698559  0.13484968    -0.19400
C1221       C  0.81309874  0.28239162  0.13595252    -0.07900
C1222       C  0.80900065  0.30276364  0.12893988    -0.03900
C1223       C  0.78914498  0.30734395  0.12081301    -0.09200
C1224       C  0.77376685  0.29191050  0.11975393    -0.16900
H1225       H  0.68253876  0.21827746  0.11259895     0.11300
H1226       H  0.70973928  0.24510429  0.11064225     0.10500
H1227       H  0.75260213  0.20425008  0.14220333     0.10500
H1228       H  0.72560219  0.17731506  0.14429272     0.11000
H1229       H  0.80114379  0.25141458  0.14038491     0.11100
H1230       H  0.82817939  0.27835950  0.14236287     0.11000
H1231       H  0.78543975  0.32288155  0.11538622     0.11200
H1232       H  0.75854935  0.29576538  0.11353813     0.10000
C1233       C  0.69519037  0.13210979  0.19732233    -0.03800
C1234       C  0.69134089  0.14021868  0.21734978    -0.09600
C1235       C  0.70649862  0.13886508  0.23296414    -0.17200
C1236       C  0.72570160  0.12939381  0.22881698     0.24900
C1237       C  0.72956762  0.12102266  0.20903927    -0.18900
C1238       C  0.71443406  0.12235623  0.19339066    -0.07800
C1239       C  0.74165758  0.12889039  0.24463609    -0.14200
C1240       C  0.75512353  0.12915260  0.25777902    -0.14000
C1241       C  0.77119634  0.13015607  0.27346126     0.24800
C1242       C  0.79129270  0.12285592  0.26911639    -0.19400
C1243       C  0.80696548  0.12417162  0.28424722    -0.07900
C1244       C  0.80273589  0.13283770  0.30395875    -0.03900
C1245       C  0.78247475  0.14013053  0.30815744    -0.09200
C1246       C  0.76684401  0.13878110  0.29301932    -0.16900
H1247       H  0.67670467  0.14782979  0.22090289     0.11300
H1248       H  0.70332987  0.14542767  0.24819849     0.10500
H1249       H  0.74438117  0.11367642  0.20563335     0.10500
H1250       H  0.71789593  0.11595404  0.17816296     0.11000
H1251       H  0.79487556  0.11622558  0.25400220     0.11100
H1252       H  0.82240378  0.11851019  0.28047114     0.11000
H1253       H  0.77869815  0.14696491  0.32312409     0.11200
H1254       H  0.75137766  0.14455731  0.29654633     0.10000
C1255       C  0.63356440  0.30801204  0.29794370    -0.03800
C1256       C  0.62153706  0.28995715  0.30121213    -0.09600
C1257       C  0.62034457  0.27452040  0.28584474    -0.17200
C1258       C  0.63120551  0.27688257  0.26707303     0.24900
C1259       C  0.64317088  0.29479918  0.26367133    -0.18900
C1260       C  0.64432752  0.31028116  0.27896635    -0.07800
C1261       C  0.63034987  0.26084614  0.25138723    -0.14200
C1262       C  0.63019507  0.24756327  0.23808056    -0.14000
C1263       C  0.63071641  0.23190376  0.22200733     0.24800
C1264       C  0.63969683  0.23647200  0.20266901    -0.19400
C1265       C  0.64078221  0.22116252  0.18720257    -0.07900
C1266       C  0.63288476  0.20102587  0.19087851    -0.03900
C1267       C  0.62368857  0.19663825  0.21030367    -0.09200
C1268       C  0.62263840  0.21198866  0.22576256    -0.16900
H1269       H  0.61307496  0.28774366  0.31564552     0.11300
H1270       H  0.61104813  0.26070309  0.28864992     0.10500
H1271       H  0.65169422  0.29676234  0.24922494     0.10500
H1272       H  0.65382081  0.32392407  0.27601179     0.11000
H1273       H  0.64602146  0.25182687  0.19960045     0.11100
H1274       H  0.64797896  0.22505352  0.17243875     0.11000
H1275       H  0.61750799  0.18129336  0.21364344     0.11200
H1276       H  0.61568008  0.20827399  0.24069352     0.10000
C1277       C  0.57879577  0.64705896  0.35151677    -0.03800
C1278       C  0.56810442  0.63014379  0.34248779    -0.09600
C1279       C  0.54636840  0.62875251  0.34383816    -0.17200
C1280       C  0.53500818  0.64415433  0.35431912     0.24900
C1281       C  0.54552579  0.66093673  0.36350259    -0.18900
C1282       C  0.56724276  0.66241242  0.36209601    -0.07800
C1283       C  0.51255639  0.64303604  0.35526004    -0.14200
C1284       C  0.49373155  0.64278633  0.35568263    -0.14000
C1285       C  0.47124688  0.64354657  0.35559034     0.24800
C1286       C  0.46099712  0.66170271  0.36197110    -0.19400
C1287       C  0.43928125  0.66306757  0.36073010    -0.07900
C1288       C  0.42743323  0.64627735  0.35300713    -0.03900
C1289       C  0.43782411  0.62787609  0.34710327    -0.09200
C1290       C  0.45958422  0.62654517  0.34837807    -0.16900
H1291       H  0.57650169  0.61812837  0.33412818     0.11300
H1292       H  0.53841593  0.61573558  0.33658029     0.10500
H1293       H  0.53692135  0.67298483  0.37161835     0.10500
H1294       H  0.57497449  0.67562422  0.36922041     0.11000
H1295       H  0.46982744  0.67497173  0.36757580     0.11100
H1296       H  0.43181775  0.67745159  0.36542629     0.11000
H1297       H  0.42918638  0.61465611  0.34112649     0.11200
H1298       H  0.46732642  0.61239707  0.34339523     0.10000
C1299       C  0.64690430  0.57719527  0.35339020    -0.03800
C1300       C  0.65399000  0.56664480  0.37126919    -0.09600
C1301       C  0.65234427  0.54494391  0.37267904    -0.17200
C1302       C  0.64350946  0.53350676  0.35632462     0.24900
C1303       C  0.63602517  0.54390224  0.33867417    -0.18900
C1304       C  0.63770380  0.56558501  0.33719879    -0.07800
C1305       C  0.64286207  0.51107483  0.35725988    -0.14200
C1306       C  0.64303744  0.49226812  0.35741570    -0.14000
C1307       C  0.64410173  0.46984283  0.35677462     0.24800
C1308       C  0.66241698  0.45965843  0.36278024    -0.19400
C1309       C  0.66398230  0.43799541  0.36103455    -0.07900
C1310       C  0.64723017  0.42618476  0.35318585    -0.03900
C1311       C  0.62870784  0.43651690  0.34760762    -0.09200
C1312       C  0.62718332  0.45820530  0.34937400    -0.16900
H1313       H  0.66118441  0.57509997  0.38398633     0.11300
H1314       H  0.65824454  0.53706136  0.38639570     0.10500
H1315       H  0.62917950  0.53521937  0.32590594     0.10500
H1316       H  0.63205437  0.57321981  0.32324901     0.11000
H1317       H  0.67562460  0.46849874  0.36851142     0.11100
H1318       H  0.67844367  0.43054815  0.36550483     0.11000
H1319       H  0.61551539  0.42789206  0.34155347     0.11200
H1320       H  0.61293179  0.46592047  0.34466070     0.10000
C1321       C  0.57766390  0.85710870  0.14219206    -0.03800
C1322       C  0.56772512  0.87606217  0.14699312    -0.09600
C1323       C  0.54602313  0.87774252  0.14593718    -0.17200
C1324       C  0.53396860  0.86054450  0.14005018     0.24900
C1325       C  0.54371962  0.84172148  0.13492376    -0.18900
C1326       C  0.56541876  0.84000158  0.13594845    -0.07800
C1327       C  0.51158281  0.86199717  0.13980895    -0.14200
C1328       C  0.49279706  0.86245576  0.13998723    -0.14000
C1329       C  0.47038208  0.86169923  0.14051417     0.24800
C1330       C  0.46002800  0.84413360  0.13280758    -0.19400
C1331       C  0.43835433  0.84273064  0.13414264    -0.07900
C1332       C  0.42667473  0.85890706  0.14324540    -0.03900
C1333       C  0.43717150  0.87672759  0.15059160    -0.09200
C1334       C  0.45891469  0.87807570  0.14926717    -0.16900
H1335       H  0.57668783  0.88951924  0.15185347     0.11300
H1336       H  0.53863584  0.89237985  0.14995699     0.10500
H1337       H  0.53453142  0.82829300  0.13037530     0.10500
H1338       H  0.57256378  0.82518564  0.13218755     0.11000
H1339       H  0.46874202  0.83136766  0.12600931     0.11100
H1340       H  0.43077634  0.82883017  0.12827869     0.11000
H1341       H  0.42863673  0.88943816  0.15768803     0.11200
H1342       H  0.46678732  0.89174478  0.15530932     0.10000
C1343       C  0.64724803  0.07737098  0.14147161    -0.03800
C1344       C  0.63610197  0.06562856  0.15626441    -0.09600
C1345       C  0.63484959  0.04391992  0.15449535    -0.17200
C1346       C  0.64475040  0.03363491  0.13798291     0.24900
C1347       C  0.65564223  0.04520990  0.12304545    -0.18900
C1348       C  0.65682781  0.06692091  0.12471843    -0.07800
C1349       C  0.64427480  0.01119100  0.13675942    -0.14200
C1350       C  0.64426396  0.99237145  0.13652822    -0.14000
C1351       C  0.64461866  0.96991777  0.13755628     0.24800
C1352       C  0.65212912  0.95809795  0.12079873    -0.19400
C1353       C  0.65337142  0.93634866  0.12237477    -0.07900
C1354       C  0.64715082  0.92616124  0.14079039    -0.03900
C1355       C  0.63923169  0.93818481  0.15734808    -0.09200
C1356       C  0.63801350  0.95986724  0.15573585    -0.16900
H1357       H  0.62851788  0.07319159  0.16930501     0.11300
H1358       H  0.62637995  0.03513022  0.16616773     0.10500
H1359       H  0.66342733  0.03743867  0.11023749     0.10500
H1360       H  0.66560546  0.07547834  0.11311411     0.11000
H1361       H  0.65729836  0.96570374  0.10663659     0.11100
H1362       H  0.65951875  0.92756511  0.10934159     0.11000
H1363       H  0.63428220  0.93087671  0.17173342     0.11200
H1364       H  0.63218412  0.96882496  0.16880986     0.10000
C1365       C  0.63331846  0.80412571  0.19285292    -0.03800
C1366       C  0.64047690  0.78364032  0.18970046    -0.09600
C1367       C  0.63981805  0.76908413  0.20591086    -0.17200
C1368       C  0.63204952  0.77478689  0.22548701     0.24900
C1369       C  0.62475541  0.79507766  0.22873544    -0.18900
C1370       C  0.62535073  0.80965147  0.21253846    -0.07800
C1371       C  0.63185048  0.75988190  0.24227624    -0.14200
C1372       C  0.63206670  0.74718471  0.25614179    -0.14000
C1373       C  0.63275671  0.73166534  0.27235111     0.24800
C1374       C  0.64240463  0.73610510  0.29141601    -0.19400
C1375       C  0.64362461  0.72080556  0.30690233    -0.07900
C1376       C  0.63521241  0.70082182  0.30350161    -0.03900
C1377       C  0.62538491  0.69658405  0.28434665    -0.09200
C1378       C  0.62417866  0.71190715  0.26890174    -0.16900
H1379       H  0.64673025  0.77889247  0.17475624     0.11300
H1380       H  0.64551436  0.75342322  0.20321786     0.10500
H1381       H  0.61873907  0.79968188  0.24383080     0.10500
H1382       H  0.61980901  0.82530728  0.21551338     0.11000
H1383       H  0.64913088  0.75133489  0.29425122     0.11100
H1384       H  0.65131195  0.72457295  0.32145567     0.11000
H1385       H  0.61874990  0.68138127  0.28122164     0.11200
H1386       H  0.61669605  0.70828340  0.25419622     0.10000
C1387       C  0.85831247  0.42627781  0.14181443    -0.03800
C1388       C  0.84239059  0.43768296  0.13195104    -0.09600
C1389       C  0.84382740  0.45934133  0.13009367    -0.17200
C1390       C  0.86115511  0.46992295  0.13806544     0.24900
C1391       C  0.87727503  0.45868885  0.14753932    -0.18900
C1392       C  0.87590908  0.43699729  0.14935778    -0.07800
C1393       C  0.86186566  0.49235315  0.13740516    -0.14200
C1394       C  0.86167530  0.51115360  0.13768780    -0.14000
C1395       C  0.86067031  0.53354674  0.13899983     0.24800
C1396       C  0.86453993  0.54349871  0.15802099    -0.19400
C1397       C  0.86285976  0.56516198  0.15961512    -0.07900
C1398       C  0.85717452  0.57720652  0.14218549    -0.03900
C1399       C  0.85346433  0.56707866  0.12307535    -0.09200
C1400       C  0.85522397  0.54538974  0.12150665    -0.16900
H1401       H  0.82868120  0.42990819  0.12590350     0.11300
H1402       H  0.83124221  0.46787268  0.12275388     0.10500
H1403       H  0.89073471  0.46672313  0.15382624     0.10500
H1404       H  0.88841854  0.42868419  0.15704652     0.11000
H1405       H  0.86867454  0.53448741  0.17169137     0.11100
H1406       H  0.86573596  0.57243833  0.17457283     0.11000
H1407       H  0.84907762  0.57589519  0.10937101     0.11200
H1408       H  0.85213898  0.53784937  0.10671325     0.10000
C1409       C  0.92694471  0.64603448  0.14105324    -0.03800
C1410       C  0.93699592  0.62700618  0.14526830    -0.09600
C1411       C  0.95871897  0.62542031  0.14388817    -0.17200
C1412       C  0.97067548  0.64280347  0.13829710     0.24900
C1413       C  0.96078140  0.66168406  0.13372495    -0.18900
C1414       C  0.93909194  0.66329600  0.13503655    -0.07800
C1415       C  0.99311020  0.64157967  0.13795530    -0.14200
C1416       C  0.01192262  0.64155238  0.13821003    -0.14000
C1417       C  0.03433758  0.64286794  0.13906774     0.24800
C1418       C  0.04427089  0.66151308  0.13367784    -0.19400
C1419       C  0.06590642  0.66331839  0.13536757    -0.07900
C1420       C  0.07798034  0.64648898  0.14256174    -0.03900
C1421       C  0.06790849  0.62766137  0.14763741    -0.09200
C1422       C  0.04621524  0.62588712  0.14590541    -0.16900
H1423       H  0.92810742  0.61342482  0.14989679     0.11300
H1424       H  0.96620234  0.61072461  0.14747476     0.10500
H1425       H  0.96986091  0.67526227  0.12942311     0.10500
H1426       H  0.93188249  0.67818278  0.13171844     0.11000
H1427       H  0.03525453  0.67477307  0.12840589     0.11100
H1428       H  0.07313296  0.67802584  0.13132484     0.11000
H1429       H  0.07674455  0.61440626  0.15318793     0.11200
H1430       H  0.03869432  0.61137484  0.15014615     0.10000
C1431       C  0.69882783  0.63227701  0.30043267    -0.03800
C1432       C  0.69667619  0.64189776  0.28084572    -0.09600
C1433       C  0.71288689  0.64117992  0.26631101    -0.17200
C1434       C  0.73146685  0.63083308  0.27109483     0.24900
C1435       C  0.73370412  0.62101673  0.29044883    -0.18900
C1436       C  0.71750515  0.62173336  0.30504440    -0.07800
C1437       C  0.74825554  0.63060237  0.25618908    -0.14200
C1438       C  0.76196424  0.63093101  0.24332356    -0.14000
C1439       C  0.77791964  0.63170604  0.22754712     0.24800
C1440       C  0.79659084  0.64234955  0.23131794    -0.19400
C1441       C  0.81192790  0.64336954  0.21585572    -0.07900
C1442       C  0.80876089  0.63377561  0.19636776    -0.03900
C1443       C  0.78993510  0.62311654  0.19273892    -0.09200
C1444       C  0.77464621  0.62208877  0.20823797    -0.16900
H1445       H  0.68255047  0.65020343  0.27682329     0.11300
H1446       H  0.71098371  0.64884255  0.25138911     0.10500
H1447       H  0.74802096  0.61295317  0.29432311     0.10500
H1448       H  0.71967402  0.61419460  0.31998221     0.11000
H1449       H  0.79926118  0.64993253  0.24617235     0.11100
H1450       H  0.82619255  0.65179734  0.21911324     0.11000
H1451       H  0.78698604  0.61561115  0.17790907     0.11200
H1452       H  0.76022364  0.61386458  0.20512216     0.10000
C1453       C  0.80415085  0.69644801  0.12766462    -0.03800
C1454       C  0.80935027  0.71594039  0.11903626    -0.09600
C1455       C  0.79459260  0.73194195  0.11812177    -0.17200
C1456       C  0.77442746  0.72869962  0.12576030     0.24900
C1457       C  0.76903260  0.70930630  0.13418111    -0.18900
C1458       C  0.78378012  0.69328017  0.13515304    -0.07800
C1459       C  0.75940328  0.74537625  0.12533776    -0.14200
C1460       C  0.74677540  0.75930372  0.12544623    -0.14000
C1461       C  0.73147163  0.77571458  0.12614241     0.24800
C1462       C  0.71185441  0.77273486  0.11708891    -0.19400
C1463       C  0.69671081  0.78834426  0.11839223    -0.07900
C1464       C  0.70098920  0.80719678  0.12878020    -0.03900
C1465       C  0.72084615  0.81014596  0.13763218    -0.09200
C1466       C  0.73596233  0.79449127  0.13632392    -0.16900
H1467       H  0.82490472  0.71892692  0.11320425     0.11300
H1468       H  0.79896437  0.74689244  0.11160864     0.10500
H1469       H  0.75346912  0.70662386  0.14016246     0.10500
H1470       H  0.77928106  0.67848618  0.14190956     0.11000
H1471       H  0.70819150  0.75826450  0.10918530     0.11100
H1472       H  0.68160133  0.78557482  0.11139363     0.11000
H1473       H  0.72463588  0.82445130  0.14575568     0.11200
H1474       H  0.75108816  0.79696120  0.14342141     0.10000
C1475       C  0.07854953  0.85837394  0.35362333    -0.03800
C1476       C  0.06632735  0.84150657  0.36052969    -0.09600
C1477       C  0.04466177  0.84339933  0.36207096    -0.17200
C1478       C  0.03487145  0.86216160  0.35680340     0.24900
C1479       C  0.04691102  0.87913787  0.35023988    -0.18900
C1480       C  0.06859371  0.87727875  0.34865864    -0.07800
C1481       C  0.01244539  0.86365990  0.35737157    -0.14200
C1482       C  0.99362817  0.86401753  0.35716647    -0.14000
C1483       C  0.97118226  0.86318449  0.35617020     0.24800
C1484       C  0.96051442  0.87326031  0.34001963    -0.19400
C1485       C  0.93888260  0.87110464  0.33812460    -0.07900
C1486       C  0.92760972  0.85888552  0.35243654    -0.03900
C1487       C  0.93840151  0.84929136  0.36894230    -0.09200
C1488       C  0.96003421  0.85136377  0.37072677    -0.16900
H1489       H  0.07346016  0.82672733  0.36443685     0.11300
H1490       H  0.03551640  0.83012327  0.36710902     0.10500
H1491       H  0.03951960  0.89372628  0.34607160     0.10500
H1492       H  0.07752462  0.89056090  0.34329983     0.11000
H1493       H  0.96896431  0.88244822  0.32864727     0.11100
H1494       H  0.93102174  0.87878762  0.32532315     0.11000
H1495       H  0.93020323  0.83974165  0.38018724     0.11200
H1496       H  0.96810907  0.84342577  0.38324625     0.10000
C1497       C  0.85719734  0.92630204  0.35128666    -0.03800
C1498       C  0.87576920  0.93669554  0.34593228    -0.09600
C1499       C  0.87712331  0.95842114  0.34728220    -0.17200
C1500       C  0.85997934  0.97009388  0.35401492     0.24900
C1501       C  0.84152836  0.95988520  0.35966132    -0.18900
C1502       C  0.84013570  0.93815011  0.35834060    -0.07800
C1503       C  0.86114089  0.99254531  0.35463440    -0.14200
C1504       C  0.86162799  0.01136445  0.35473840    -0.14000
C1505       C  0.86122358  0.03384686  0.35447646     0.24800
C1506       C  0.84556978  0.04452448  0.36525945    -0.19400
C1507       C  0.84426517  0.06623974  0.36405349    -0.07900
C1508       C  0.85866848  0.07764554  0.35207040    -0.03900
C1509       C  0.87472774  0.06685268  0.34174469    -0.09200
C1510       C  0.87592667  0.04507939  0.34287464    -0.16900
H1511       H  0.88919320  0.92806739  0.34045543     0.11300
H1512       H  0.89148249  0.96612957  0.34285641     0.10500
H1513       H  0.82813656  0.96874192  0.36487568     0.10500
H1514       H  0.82560750  0.93066305  0.36255969     0.11000
H1515       H  0.83412512  0.03602856  0.37431972     0.11100
H1516       H  0.83180059  0.07408132  0.37229082     0.11000
H1517       H  0.88601707  0.07517496  0.33235153     0.11200
H1518       H  0.88810502  0.03699463  0.33443268     0.10000
C1519       C  0.80984779  0.80207233  0.36414075    -0.03800
C1520       C  0.81274887  0.78272426  0.35421164    -0.09600
C1521       C  0.79722357  0.76743829  0.35500198    -0.17200
C1522       C  0.77862738  0.77124712  0.36574237     0.24900
C1523       C  0.77561124  0.79041501  0.37570117    -0.18900
C1524       C  0.79109469  0.80574274  0.37490536    -0.07800
C1525       C  0.76265136  0.75549778  0.36650399    -0.14200
C1526       C  0.74937828  0.74218965  0.36697097    -0.14000
C1527       C  0.73368927  0.72613735  0.36714267     0.24800
C1528       C  0.71436312  0.72972910  0.37660502    -0.19400
C1529       C  0.69896307  0.71427986  0.37629747    -0.07900
C1530       C  0.70273333  0.69501020  0.36652579    -0.03900
C1531       C  0.72230883  0.69148546  0.35726434    -0.09200
C1532       C  0.73764789  0.70695492  0.35756670    -0.16900
H1533       H  0.82694885  0.77944459  0.34569718     0.11300
H1534       H  0.79970719  0.75266992  0.34720055     0.10500
H1535       H  0.76126615  0.79353701  0.38404505     0.10500
H1536       H  0.78835077  0.82047573  0.38266346     0.11000
H1537       H  0.71113603  0.74452763  0.38406827     0.11100
H1538       H  0.68406317  0.71749131  0.38353817     0.11000
H1539       H  0.72570092  0.67686568  0.34954082     0.11200
H1540       H  0.75254448  0.70400833  0.35017934     0.10000
C1541       C  0.80391260  0.86977107  0.30220392    -0.03800
C1542       C  0.80871207  0.87661556  0.28192779    -0.09600
C1543       C  0.79315695  0.87786874  0.26669931    -0.17200
C1544       C  0.77260480  0.87238751  0.27153670     0.24900
C1545       C  0.76767280  0.86556795  0.29165818    -0.18900
C1546       C  0.78320815  0.86421851  0.30688706    -0.07800
C1547       C  0.75661508  0.87352002  0.25582394    -0.14200
C1548       C  0.74311237  0.87398835  0.24275219    -0.14000
C1549       C  0.72686667  0.87369553  0.22727092     0.24800
C1550       C  0.70880422  0.86198061  0.23073587    -0.19400
C1551       C  0.69331334  0.86095994  0.21546464    -0.07900
C1552       C  0.69572894  0.87157982  0.19643093    -0.03900
C1553       C  0.71381555  0.88355398  0.19317696    -0.09200
C1554       C  0.72926846  0.88462078  0.20853653    -0.16900
H1555       H  0.82451307  0.88085759  0.27778407     0.11300
H1556       H  0.79717027  0.88307444  0.25114622     0.10500
H1557       H  0.75182428  0.86123485  0.29556523     0.10500
H1558       H  0.77899614  0.85886576  0.32232886     0.11000
H1559       H  0.70679304  0.85343853  0.24515954     0.11100
H1560       H  0.67960941  0.85155299  0.21842827     0.11000
H1561       H  0.71609222  0.89195869  0.17872295     0.11200
H1562       H  0.74318639  0.89375844  0.20570156     0.10000
C1563       C  0.87343683  0.80792758  0.29706670    -0.03800
C1564       C  0.86683625  0.81195838  0.27654476    -0.09600
C1565       C  0.86784862  0.79639390  0.26133525    -0.17200
C1566       C  0.87541272  0.77659304  0.26640812     0.24900
C1567       C  0.88219057  0.77246032  0.28672476    -0.18900
C1568       C  0.88124822  0.78802881  0.30196760    -0.07800
C1569       C  0.87576246  0.76045633  0.25083018    -0.14200
C1570       C  0.87546264  0.74716134  0.23755187    -0.14000
C1571       C  0.87452969  0.73150201  0.22151894     0.24800
C1572       C  0.88118500  0.71116403  0.22566605    -0.19400
C1573       C  0.87996452  0.69588049  0.21017570    -0.07900
C1574       C  0.87200347  0.70075315  0.19032740    -0.03900
C1575       C  0.86538930  0.72126322  0.18629952    -0.09200
C1576       C  0.86667961  0.73652807  0.20180108    -0.16900
H1577       H  0.86072879  0.82709306  0.27226566     0.11300
H1578       H  0.86254342  0.79974956  0.24565964     0.10500
H1579       H  0.88802854  0.75716161  0.29082959     0.10500
H1580       H  0.88635675  0.78439835  0.31763627     0.11000
H1581       H  0.88722276  0.70709282  0.24090074     0.11100
H1582       H  0.88506863  0.68021587  0.21380793     0.11000
H1583       H  0.85914800  0.72550506  0.17120270     0.11200
H1584       H  0.86144820  0.75222243  0.19844256     0.10000
C1585       C  0.14735697  0.35726916  0.07259423    -0.03800
C1586       C  0.14153154  0.33980764  0.06063881    -0.09600
C1587       C  0.13997137  0.34123130  0.03895641    -0.17200
C1588       C  0.14411774  0.36011709  0.02888350     0.24900
C1589       C  0.14965644  0.37766088  0.04063930    -0.18900
C1590       C  0.15128534  0.37626443  0.06235858    -0.07800
C1591       C  0.14330993  0.36120820  0.00646056    -0.14200
C1592       C  0.14320491  0.36124188  0.98764881    -0.14000
C1593       C  0.14384769  0.36026678  0.96521304     0.24800
C1594       C  0.15244325  0.37670120  0.95372505    -0.19400
C1595       C  0.15414992  0.37519089  0.93202797    -0.07900
C1596       C  0.14734133  0.35715547  0.92152834    -0.03900
C1597       C  0.13834086  0.34089997  0.93319199    -0.09200
C1598       C  0.13663135  0.34246212  0.95486872    -0.16900
H1599       H  0.13847371  0.32493089  0.06799980     0.11300
H1600       H  0.13574605  0.32752994  0.03002632     0.10500
H1601       H  0.15294433  0.39235698  0.03300368     0.10500
H1602       H  0.15579342  0.38998261  0.07110212     0.11000
H1603       H  0.15811635  0.39054477  0.96156034     0.11100
H1604       H  0.16113784  0.38799088  0.92352769     0.11000
H1605       H  0.13290081  0.32683194  0.92561508     0.11200
H1606       H  0.12997045  0.32962739  0.96359736     0.10000
C1607       C  0.35913664  0.14841096  0.07303103    -0.03800
C1608       C  0.36807409  0.16486738  0.06160743    -0.09600
C1609       C  0.36984271  0.16358798  0.03991448    -0.17200
C1610       C  0.36273446  0.14587487  0.02933903     0.24900
C1611       C  0.35418553  0.12926071  0.04059489    -0.18900
C1612       C  0.35243930  0.13047932  0.06229435    -0.07800
C1613       C  0.36344189  0.14510590  0.00690633    -0.14200
C1614       C  0.36319978  0.14490331  0.98810158    -0.14000
C1615       C  0.36187987  0.14519153  0.96568485     0.24800
C1616       C  0.37889260  0.15173900  0.95368746    -0.19400
C1617       C  0.37720757  0.15286252  0.93195777    -0.07900
C1618       C  0.35844110  0.14744482  0.92195832    -0.03900
C1619       C  0.34154969  0.14058037  0.93416278    -0.09200
C1620       C  0.34326748  0.13949809  0.95585105    -0.16900
H1621       H  0.37342063  0.17886059  0.06938722     0.11300
H1622       H  0.37646383  0.17655861  0.03135977     0.10500
H1623       H  0.34858318  0.11549393  0.03257480     0.10500
H1624       H  0.34547325  0.11754478  0.07060835     0.11000
H1625       H  0.39337206  0.15621813  0.96113970     0.11100
H1626       H  0.39048910  0.15821568  0.92302737     0.11000
H1627       H  0.32686913  0.13633740  0.92699003     0.11200
H1628       H  0.32998057  0.13445432  0.96497146     0.10000
C1629       C  0.30324396  0.19561430  0.86739667    -0.03800
C1630       C  0.30794073  0.21552149  0.87532421    -0.09600
C1631       C  0.29247335  0.23080750  0.87661916    -0.17200
C1632       C  0.27214242  0.22637156  0.87008010     0.24900
C1633       C  0.26726516  0.20654846  0.86242093    -0.18900
C1634       C  0.28269595  0.19126089  0.86106685    -0.07800
C1635       C  0.25639690  0.24229076  0.87067123    -0.14200
C1636       C  0.24316482  0.25560102  0.87049030    -0.14000
C1637       C  0.22736859  0.27145348  0.86954304     0.24800
C1638       C  0.20741006  0.26651275  0.86227584    -0.19400
C1639       C  0.19220169  0.28201547  0.86074424    -0.07900
C1640       C  0.19676512  0.30267757  0.86652846    -0.03900
C1641       C  0.21683167  0.30745120  0.87399138    -0.09200
C1642       C  0.23203736  0.29192589  0.87543841    -0.16900
H1643       H  0.32361354  0.21937376  0.88027441     0.11300
H1644       H  0.29641351  0.24613142  0.88252593     0.10500
H1645       H  0.25157302  0.20296834  0.85729291     0.10500
H1646       H  0.27856439  0.17609519  0.85490982     0.11000
H1647       H  0.20365100  0.25071423  0.85764234     0.11100
H1648       H  0.17690117  0.27783292  0.85495884     0.11000
H1649       H  0.22085622  0.32321497  0.87848198     0.11200
H1650       H  0.24747396  0.29592000  0.88101761     0.10000
C1651       C  0.35758156  0.35727350  0.57315196    -0.03800
C1652       C  0.35266006  0.37614847  0.56312586    -0.09600
C1653       C  0.35420972  0.37790669  0.54144199    -0.17200
C1654       C  0.36069181  0.36086320  0.52946544     0.24900
C1655       C  0.36577709  0.34207291  0.53930810    -0.18900
C1656       C  0.36426745  0.34027969  0.56099048    -0.07800
C1657       C  0.36152609  0.36244111  0.50705586    -0.14200
C1658       C  0.36152535  0.36323666  0.48825035    -0.14000
C1659       C  0.36058536  0.36324639  0.46578573     0.24800
C1660       C  0.34194699  0.36834881  0.45567129    -0.19400
C1661       C  0.34044984  0.36685656  0.43396399    -0.07900
C1662       C  0.35759010  0.36013634  0.42203564    -0.03900
C1663       C  0.37646099  0.35564349  0.43229385    -0.09200
C1664       C  0.37792370  0.35717558  0.45401599    -0.16900
H1665       H  0.34743823  0.38951328  0.57200969     0.11300
H1666       H  0.35016110  0.39250840  0.53400229     0.10500
H1667       H  0.37072778  0.32874059  0.53020559     0.10500
H1668       H  0.36809867  0.32550986  0.56819276     0.11000
H1669       H  0.32841660  0.37306750  0.46460467     0.11100
H1670       H  0.32571651  0.37048005  0.42658484     0.11000
H1671       H  0.38997751  0.35052274  0.42358349     0.11200
H1672       H  0.39244395  0.35320238  0.46165442     0.10000
C1673       C  0.37183054  0.30831857  0.69655414    -0.03800
C1674       C  0.36235867  0.31117614  0.71612656    -0.09600
C1675       C  0.36326953  0.29551848  0.73122862    -0.17200
C1676       C  0.37367488  0.27683199  0.72702120     0.24900
C1677       C  0.38332884  0.27390375  0.70768228    -0.18900
C1678       C  0.38241628  0.28953723  0.69252556    -0.07800
C1679       C  0.37411827  0.26060271  0.74248194    -0.14200
C1680       C  0.37391538  0.24726081  0.75570196    -0.14000
C1681       C  0.37307397  0.23161738  0.77174316     0.24800
C1682       C  0.38063980  0.21153648  0.76789644    -0.19400
C1683       C  0.37946624  0.19625825  0.78338899    -0.07900
C1684       C  0.37066714  0.20088048  0.80295010    -0.03900
C1685       C  0.36320210  0.22115847  0.80669071    -0.09200
C1686       C  0.36441200  0.23640631  0.79117908    -0.16900
H1687       H  0.35403546  0.32541202  0.71969970     0.11300
H1688       H  0.35572073  0.29793029  0.74614317     0.10500
H1689       H  0.39142180  0.25948904  0.70426329     0.10500
H1690       H  0.38985893  0.28685255  0.67761594     0.11000
H1691       H  0.38734698  0.20765542  0.75289094     0.11100
H1692       H  0.38531096  0.18079889  0.77999201     0.11000
H1693       H  0.35631786  0.22522161  0.82155742     0.11200
H1694       H  0.35848578  0.25190304  0.79430880     0.10000
C1695       C  0.30412711  0.37186551  0.69181298    -0.03800
C1696       C  0.28469696  0.36196597  0.68942534    -0.09600
C1697       C  0.26970239  0.36314413  0.70518255    -0.17200
C1698       C  0.27389105  0.37427137  0.72347326     0.24900
C1699       C  0.29303183  0.38444953  0.72585500    -0.18900
C1700       C  0.30807585  0.38325567  0.71014377    -0.07800
C1701       C  0.25878691  0.37474304  0.74002709    -0.14200
C1702       C  0.24625775  0.37460887  0.75401720    -0.14000
C1703       C  0.23126873  0.37392027  0.77066935     0.24800
C1704       C  0.23649601  0.36472147  0.78974433    -0.19400
C1705       C  0.22174166  0.36354002  0.80574475    -0.07900
C1706       C  0.20155693  0.37158328  0.80283903    -0.03900
C1707       C  0.19653117  0.38096148  0.78365675    -0.09200
C1708       C  0.21129387  0.38209571  0.76769077    -0.16900
H1709       H  0.28119215  0.35304274  0.67552449     0.11300
H1710       H  0.25493929  0.35518254  0.70319871     0.10500
H1711       H  0.29642397  0.39310676  0.73995980     0.10500
H1712       H  0.32285350  0.39108516  0.71243625     0.11000
H1713       H  0.25192039  0.35831458  0.79219111     0.11100
H1714       H  0.22608235  0.35619140  0.82030281     0.11000
H1715       H  0.18111798  0.38723828  0.78088828     0.11200
H1716       H  0.20707447  0.38920756  0.75296915     0.10000
C1717       C  0.14793853  0.14610008  0.57237173    -0.03800
C1718       C  0.16408821  0.13683680  0.56076985    -0.09600
C1719       C  0.16263856  0.13524024  0.53906965    -0.17200
C1720       C  0.14506045  0.14286778  0.52865055     0.24900
C1721       C  0.12877846  0.15181460  0.54007629    -0.18900
C1722       C  0.13016835  0.15339248  0.56178509    -0.07800
C1723       C  0.14410207  0.14221694  0.50620983    -0.14200
C1724       C  0.14394219  0.14232847  0.48739549    -0.14000
C1725       C  0.14470026  0.14317152  0.46495361     0.24800
C1726       C  0.12844917  0.15239509  0.45368541    -0.19400
C1727       C  0.12976774  0.15416620  0.43197034    -0.07900
C1728       C  0.14744310  0.14681977  0.42125662    -0.03900
C1729       C  0.16350953  0.13723969  0.43270889    -0.09200
C1730       C  0.16212716  0.13544062  0.45438052    -0.16900
H1731       H  0.17797198  0.13105958  0.56842353     0.11300
H1732       H  0.17536142  0.12831880  0.53039361     0.10500
H1733       H  0.11512363  0.15783092  0.53218145     0.10500
H1734       H  0.11748935  0.16064864  0.57022875     0.11000
H1735       H  0.11490020  0.15848334  0.46170453     0.11100
H1736       H  0.11714755  0.16164271  0.42363105     0.11000
H1737       H  0.17729584  0.13136331  0.42495812     0.11200
H1738       H  0.17481188  0.12828823  0.46292548     0.10000
C1739       C  0.13480819  0.30909554  0.79722772    -0.03800
C1740       C  0.12573676  0.28950600  0.80109404    -0.09600
C1741       C  0.12474604  0.27447075  0.78532563    -0.17200
C1742       C  0.13279270  0.27879716  0.76551532     0.24900
C1743       C  0.14181229  0.29824142  0.76150562    -0.18900
C1744       C  0.14283189  0.31329229  0.77723520    -0.07800
C1745       C  0.13209587  0.26318948  0.74940017    -0.14200
C1746       C  0.13190677  0.25001210  0.73599201    -0.14000
C1747       C  0.13223729  0.23412243  0.72014438     0.24800
C1748       C  0.14205206  0.23794691  0.70105182    -0.19400
C1749       C  0.14300912  0.22230309  0.68590842    -0.07900
C1750       C  0.13417126  0.20257211  0.68968042    -0.03900
C1751       C  0.12412470  0.19895794  0.70883701    -0.09200
C1752       C  0.12318050  0.21464449  0.72395666    -0.16900
H1753       H  0.11950335  0.28575248  0.81631944     0.11300
H1754       H  0.11778745  0.25943830  0.78861421     0.10500
H1755       H  0.14814666  0.30173892  0.74624798     0.10500
H1756       H  0.14999099  0.32817840  0.77375312     0.11000
H1757       H  0.14913845  0.25295639  0.69794201     0.11100
H1758       H  0.15087557  0.22559812  0.67134127     0.11000
H1759       H  0.11717030  0.18396023  0.71222683     0.11200
H1760       H  0.11555749  0.21151388  0.73869721     0.10000
C1761       C  0.19643340  0.13313628  0.69627003    -0.03800
C1762       C  0.21539216  0.12298404  0.69199303    -0.09600
C1763       C  0.23094064  0.12173107  0.70720227    -0.17200
C1764       C  0.22777788  0.13057227  0.72688512     0.24900
C1765       C  0.20890110  0.14053259  0.73137513    -0.18900
C1766       C  0.19331247  0.14180979  0.71618378    -0.07800
C1767       C  0.24409953  0.12986305  0.74227093    -0.14200
C1768       C  0.25798389  0.12975373  0.75494288    -0.14000
C1769       C  0.27467059  0.13029027  0.76994232     0.24800
C1770       C  0.27182641  0.12181401  0.78983209    -0.19400
C1771       C  0.28782073  0.12293700  0.80460497    -0.07900
C1772       C  0.30690273  0.13258013  0.79965894    -0.03900
C1773       C  0.30967447  0.14087121  0.77954492    -0.09200
C1774       C  0.29365886  0.13972146  0.76480502    -0.16900
H1775       H  0.21830513  0.11616933  0.67682914     0.11300
H1776       H  0.24550763  0.11402091  0.70354254     0.10500
H1777       H  0.20630275  0.14747138  0.74655126     0.10500
H1778       H  0.17891707  0.14976111  0.71996699     0.11000
H1779       H  0.25718029  0.11449892  0.79398700     0.11100
H1780       H  0.28516638  0.11643333  0.81994672     0.11000
H1781       H  0.32414612  0.14842593  0.77524622     0.11200
H1782       H  0.29602215  0.14635722  0.74946141     0.10000
C1783       C  0.20261253  0.19533079  0.62703413    -0.03800
C1784       C  0.22300752  0.19122148  0.63397656    -0.09600
C1785       C  0.23847400  0.20652415  0.63257710    -0.17200
C1786       C  0.23378541  0.22613548  0.62427541     0.24900
C1787       C  0.21361757  0.23029412  0.61709933    -0.18900
C1788       C  0.19813024  0.21500179  0.61843580    -0.07800
C1789       C  0.24947733  0.24218883  0.62381507    -0.14200
C1790       C  0.26259723  0.25565590  0.62422879    -0.14000
C1791       C  0.27832704  0.27162577  0.62554322     0.24800
C1792       C  0.27447024  0.29156390  0.61759186    -0.19400
C1793       C  0.28965703  0.30713932  0.61920362    -0.07900
C1794       C  0.30892824  0.30295428  0.62880921    -0.03900
C1795       C  0.31263087  0.28285892  0.63677172    -0.09200
C1796       C  0.29743064  0.26732429  0.63513354    -0.16900
H1797       H  0.22698070  0.17624602  0.64065619     0.11300
H1798       H  0.25402743  0.20314122  0.63820830     0.10500
H1799       H  0.20979632  0.24543770  0.61069450     0.10500
H1800       H  0.18258822  0.21868357  0.61299586     0.11000
H1801       H  0.25970113  0.29509425  0.61021104     0.11100
H1802       H  0.28628298  0.32245512  0.61298670     0.11000
H1803       H  0.32725586  0.27913661  0.64432443     0.11200
H1804       H  0.30055424  0.25197209  0.64141923     0.10000
C1805       C  0.35800465  0.57762657  0.64144118    -0.03800
C1806       C  0.35025841  0.56694120  0.62390504    -0.09600
C1807       C  0.35187497  0.54523480  0.62256448    -0.17200
C1808       C  0.36135664  0.53395542  0.63864767     0.24900
C1809       C  0.36955995  0.54449800  0.65589118    -0.18900
C1810       C  0.36790800  0.56617316  0.65730149    -0.07800
C1811       C  0.36192882  0.51153183  0.63792893    -0.14200
C1812       C  0.36179071  0.49273528  0.63806649    -0.14000
C1813       C  0.36089493  0.47032736  0.63893499     0.24800
C1814       C  0.37677150  0.45907644  0.64878672    -0.19400
C1815       C  0.37545353  0.43736517  0.65034849    -0.07900
C1816       C  0.35814634  0.42664291  0.64216486    -0.03900
C1817       C  0.34239510  0.43808753  0.63207925    -0.09200
C1818       C  0.34378660  0.45976783  0.63047769    -0.16900
H1819       H  0.34254210  0.57529448  0.61143455     0.11300
H1820       H  0.34543736  0.53723153  0.60915814     0.10500
H1821       H  0.37693249  0.53592452  0.66843354     0.10500
H1822       H  0.37411025  0.57392022  0.67095561     0.11000
H1823       H  0.39004773  0.46710004  0.65546366     0.11100
H1824       H  0.38779148  0.42902677  0.65828535     0.11000
H1825       H  0.32888454  0.43031613  0.62559897     0.11200
H1826       H  0.33138406  0.46832017  0.62285404     0.10000
C1827       C  0.35664474  0.64657134  0.57224156    -0.03800
C1828       C  0.34085006  0.63630085  0.56098231    -0.09600
C1829       C  0.34184876  0.63486392  0.53926853    -0.17200
C1830       C  0.35861690  0.64365204  0.52846141     0.24900
C1831       C  0.37463908  0.65353720  0.53952562    -0.18900
C1832       C  0.37370829  0.65494583  0.56128868    -0.07800
C1833       C  0.35896577  0.64306700  0.50601126    -0.14200
C1834       C  0.35864160  0.64296295  0.48720543    -0.14000
C1835       C  0.35786944  0.64341201  0.46476459     0.24800
C1836       C  0.37559072  0.64895966  0.45332504    -0.19400
C1837       C  0.37464825  0.65027159  0.43158440    -0.07900
C1838       C  0.35592026  0.64606243  0.42097662    -0.03900
C1839       C  0.33828033  0.64009576  0.43259209    -0.09200
C1840       C  0.33925756  0.63883114  0.45433716    -0.16900
H1841       H  0.32754478  0.62961195  0.56892428     0.11300
H1842       H  0.32936974  0.62715967  0.53088283     0.10500
H1843       H  0.38769534  0.66041368  0.53131695     0.10500
H1844       H  0.38610203  0.66296629  0.56948131     0.11000
H1845       H  0.39008003  0.65253407  0.46122941     0.11100
H1846       H  0.38850333  0.65486802  0.42311571     0.11000
H1847       H  0.32361453  0.63677142  0.42492187     0.11200
H1848       H  0.32543017  0.63453363  0.46302775     0.10000
C1849       C  0.14820714  0.57774728  0.85378466    -0.03800
C1850       C  0.13906624  0.56596113  0.83768802    -0.09600
C1851       C  0.13774587  0.54426770  0.83919090    -0.17200
C1852       C  0.14553332  0.53399996  0.85677363     0.24900
C1853       C  0.15437358  0.54558809  0.87303376    -0.18900
C1854       C  0.15566697  0.56732822  0.87159294    -0.07800
C1855       C  0.14505698  0.51155670  0.85770353    -0.14200
C1856       C  0.14514252  0.49274460  0.85763653    -0.14000
C1857       C  0.14597552  0.47031069  0.85676036     0.24800
C1858       C  0.16428339  0.45991117  0.86238927    -0.19400
C1859       C  0.16550691  0.43822397  0.86073803    -0.07900
C1860       C  0.14841778  0.42658401  0.85336890    -0.03900
C1861       C  0.12996727  0.43714390  0.84799369    -0.09200
C1862       C  0.12878272  0.45886939  0.84967034    -0.16900
H1863       H  0.13314659  0.57347599  0.82378526     0.11300
H1864       H  0.13089779  0.53547722  0.82649779     0.10500
H1865       H  0.16050999  0.53780540  0.88670408     0.10500
H1866       H  0.16283797  0.57592322  0.88422940     0.11000
H1867       H  0.17771268  0.46859028  0.86783103     0.11100
H1868       H  0.17995876  0.43061089  0.86496670     0.11000
H1869       H  0.11655668  0.42866314  0.84223355     0.11200
H1870       H  0.11454277  0.46675886  0.84520523     0.10000
C1871       C  0.14554785  0.64763851  0.92199999    -0.03800
C1872       C  0.16022367  0.63647710  0.93384560    -0.09600
C1873       C  0.15813505  0.63496533  0.95548082    -0.17200
C1874       C  0.14141231  0.64461501  0.96561555     0.24900
C1875       C  0.12648164  0.65541167  0.95393247    -0.18900
C1876       C  0.12847771  0.65685572  0.93224880    -0.07800
C1877       C  0.14022446  0.64419685  0.98804917    -0.14200
C1878       C  0.14046953  0.64427882  0.00686319    -0.14000
C1879       C  0.14208387  0.64487391  0.02927058     0.24800
C1880       C  0.12495911  0.65071498  0.04146013    -0.19400
C1881       C  0.12688688  0.65210455  0.06315701    -0.07900
C1882       C  0.14600784  0.64765889  0.07295388    -0.03900
C1883       C  0.16303267  0.64149648  0.06056830    -0.09200
C1884       C  0.16107575  0.64016308  0.03889982    -0.16900
H1885       H  0.17346529  0.62911211  0.92642510     0.11300
H1886       H  0.16978888  0.62656862  0.96435423     0.10500
H1887       H  0.11349939  0.66299584  0.96160457     0.10500
H1888       H  0.11693097  0.66558836  0.92357820     0.11000
H1889       H  0.11018388  0.65442779  0.03418258     0.11100
H1890       H  0.11348339  0.65687533  0.07222660     0.11000
H1891       H  0.17798357  0.63801735  0.06757982     0.11200
H1892       H  0.17445695  0.63567868  0.02963228     0.10000
C1893       C  0.19836027  0.63304552  0.80012938    -0.03800
C1894       C  0.21861956  0.62689914  0.80584903    -0.09600
C1895       C  0.23450977  0.62598012  0.79095525    -0.17200
C1896       C  0.23035592  0.63108798  0.77016131     0.24900
C1897       C  0.21021618  0.63703780  0.76428998    -0.18900
C1898       C  0.19432444  0.63805885  0.77916464    -0.07800
C1899       C  0.24679904  0.63057104  0.75490139    -0.14200
C1900       C  0.26048531  0.63055006  0.74201926    -0.14000
C1901       C  0.27670803  0.63102170  0.72652443     0.24800
C1902       C  0.27348195  0.62184452  0.70699364    -0.19400
C1903       C  0.28902699  0.62278650  0.69174138    -0.07900
C1904       C  0.30803501  0.63294404  0.69585081    -0.03900
C1905       C  0.31118997  0.64196427  0.71560575    -0.09200
C1906       C  0.29561866  0.64101124  0.73081694    -0.16900
H1907       H  0.22226123  0.62306990  0.82187530     0.11300
H1908       H  0.25006182  0.62141462  0.79568577     0.10500
H1909       H  0.20682879  0.64103671  0.74824046     0.10500
H1910       H  0.17890186  0.64284201  0.77426028     0.11000
H1911       H  0.25888311  0.61409665  0.70349423     0.11100
H1912       H  0.28609221  0.61571804  0.67669689     0.11000
H1913       H  0.32561260  0.64995198  0.71925459     0.11200
H1914       H  0.29826965  0.64820417  0.74586594     0.10000
C1915       C  0.35723884  0.07741366  0.85267152    -0.03800
C1916       C  0.35065324  0.06698735  0.87082021    -0.09600
C1917       C  0.35211780  0.04526396  0.87226093    -0.17200
C1918       C  0.36023286  0.03367185  0.85564292     0.24900
C1919       C  0.36695465  0.04392198  0.83760328    -0.18900
C1920       C  0.36548055  0.06561537  0.83611010    -0.07800
C1921       C  0.36129459  0.01125152  0.85686078    -0.14200
C1922       C  0.36176775  0.99244220  0.85725182    -0.14000
C1923       C  0.36149009  0.96996748  0.85690169     0.24800
C1924       C  0.37740191  0.95888276  0.84688055    -0.19400
C1925       C  0.37632133  0.93713826  0.84527956    -0.07900
C1926       C  0.35919784  0.92621748  0.85356634    -0.03900
C1927       C  0.34359485  0.93746327  0.86412046    -0.09200
C1928       C  0.34475226  0.95916145  0.86576845    -0.16900
H1929       H  0.34414215  0.07557820  0.88380657     0.11300
H1930       H  0.34678404  0.03750308  0.88627633     0.10500
H1931       H  0.37320126  0.03512735  0.82461131     0.10500
H1932       H  0.37064037  0.07312239  0.82190289     0.11000
H1933       H  0.39043890  0.96707590  0.83994607     0.11100
H1934       H  0.38858944  0.92895129  0.83708471     0.11000
H1935       H  0.33027998  0.92952976  0.87080734     0.11200
H1936       H  0.33236309  0.96754488  0.87359393     0.10000
C1937       C  0.35917341  0.85717266  0.92182626    -0.03800
C1938       C  0.36712829  0.84044144  0.93355970    -0.09600
C1939       C  0.36884055  0.84192729  0.95522195    -0.17200
C1940       C  0.36269420  0.86013899  0.96550023     0.24900
C1941       C  0.35505983  0.87701404  0.95396893    -0.18900
C1942       C  0.35332848  0.87556982  0.93226032    -0.07800
C1943       C  0.36351113  0.86111994  0.98791612    -0.14200
C1944       C  0.36344753  0.86118326  0.00671981    -0.14000
C1945       C  0.36219670  0.86059310  0.02912764     0.24800
C1946       C  0.34345387  0.86567346  0.03900412    -0.19400
C1947       C  0.34175596  0.86429844  0.06066104    -0.07900
C1948       C  0.35879696  0.85771695  0.07280998    -0.03900
C1949       C  0.37770272  0.85291594  0.06278441    -0.09200
C1950       C  0.37937093  0.85434166  0.04106146    -0.16900
H1951       H  0.37176367  0.82606314  0.92604423     0.11300
H1952       H  0.37471211  0.82874546  0.96398761     0.10500
H1953       H  0.35019471  0.89117270  0.96177238     0.10500
H1954       H  0.34713674  0.88872517  0.92369709     0.11000
H1955       H  0.33004225  0.87047265  0.02993146     0.11100
H1956       H  0.32696940  0.86808818  0.06784704     0.11000
H1957       H  0.39110373  0.84781868  0.07168562     0.11200
H1958       H  0.39395368  0.85033190  0.03356738     0.10000
C1959       C  0.37233258  0.80766126  0.79830833    -0.03800
C1960       C  0.36557658  0.81172606  0.77784195    -0.09600
C1961       C  0.36682655  0.79629326  0.76249048    -0.17200
C1962       C  0.37478919  0.77658273  0.76735040     0.24900
C1963       C  0.38161484  0.77239652  0.78764240    -0.18900
C1964       C  0.38041815  0.78782034  0.80302310    -0.07800
C1965       C  0.37547900  0.76056863  0.75160504    -0.14200
C1966       C  0.37531989  0.74732928  0.73823669    -0.14000
C1967       C  0.37420875  0.73175706  0.72207597     0.24800
C1968       C  0.38567761  0.71328076  0.72373491    -0.19400
C1969       C  0.38412641  0.69798658  0.70824880    -0.07900
C1970       C  0.37114457  0.70103758  0.69082570    -0.03900
C1971       C  0.35980315  0.71972543  0.68923285    -0.09200
C1972       C  0.36130062  0.73493754  0.70477986    -0.16900
H1973       H  0.35923860  0.82680107  0.77369908     0.11300
H1974       H  0.36144143  0.79969641  0.74685012     0.10500
H1975       H  0.38773584  0.75717627  0.79161195     0.10500
H1976       H  0.38566676  0.78414741  0.81863829     0.11000
H1977       H  0.39571142  0.71063449  0.73705722     0.11100
H1978       H  0.39307824  0.68378589  0.70991654     0.11000
H1979       H  0.34957781  0.72249318  0.67609104     0.11200
H1980       H  0.35229360  0.74914115  0.70336342     0.10000
C1981       C  0.30883666  0.80345154  0.86638451    -0.03800
C1982       C  0.31111089  0.78418700  0.85615898    -0.09600
C1983       C  0.29533640  0.76920149  0.85716481    -0.17200
C1984       C  0.27711076  0.77321502  0.86843434     0.24900
C1985       C  0.27473422  0.79227124  0.87878191    -0.18900
C1986       C  0.29047851  0.80732706  0.87775307    -0.07800
C1987       C  0.26080968  0.75782286  0.86910382    -0.14200
C1988       C  0.24744401  0.74461344  0.86907545    -0.14000
C1989       C  0.23186374  0.72849071  0.86840196     0.24800
C1990       C  0.21247164  0.73150152  0.87791623    -0.19400
C1991       C  0.19729448  0.71586529  0.87702016    -0.07900
C1992       C  0.20137504  0.69698255  0.86662965    -0.03900
C1993       C  0.22093856  0.69411739  0.85713923    -0.09200
C1994       C  0.23605215  0.70977950  0.85802073    -0.16900
H1995       H  0.32499260  0.78076320  0.84718800     0.11300
H1996       H  0.29731138  0.75452128  0.84905745     0.10500
H1997       H  0.26067128  0.79553904  0.88754152     0.10500
H1998       H  0.28824671  0.82200328  0.88578002     0.11000
H1999       H  0.20905672  0.74595201  0.88595624     0.11100
H2000       H  0.18237015  0.71857871  0.88441463     0.11000
H2001       H  0.22452567  0.67983447  0.84889094     0.11200
H2002       H  0.25099063  0.70731756  0.85053962     0.10000
C2003       C  0.14770910  0.85806628  0.57376942    -0.03800
C2004       C  0.13972474  0.84149139  0.56180304    -0.09600
C2005       C  0.13856054  0.84303075  0.54008775    -0.17200
C2006       C  0.14529924  0.86114676  0.52998192     0.24900
C2007       C  0.15285914  0.87790256  0.54176311    -0.18900
C2008       C  0.15403490  0.87640664  0.56350877    -0.07800
C2009       C  0.14507796  0.86218239  0.50751868    -0.14200
C2010       C  0.14533172  0.86226899  0.48869419    -0.14000
C2011       C  0.14612514  0.86152815  0.46623087     0.24800
C2012       C  0.12932570  0.85341969  0.45488708    -0.19400
C2013       C  0.13048227  0.85180260  0.43315160    -0.07900
C2014       C  0.14852601  0.85821946  0.42245353    -0.03900
C2015       C  0.16519543  0.86666616  0.43398170    -0.09200
C2016       C  0.16398913  0.86828469  0.45569522    -0.16900
H2017       H  0.13468289  0.82717517  0.56918194     0.11300
H2018       H  0.13267920  0.82995703  0.53115401     0.10500
H2019       H  0.15812555  0.89201213  0.53412616     0.10500
H2020       H  0.16022268  0.88946415  0.57223977     0.11000
H2021       H  0.11542990  0.84809605  0.46286417     0.11100
H2022       H  0.11738934  0.84521704  0.42477109     0.11000
H2023       H  0.17930539  0.87177380  0.42625961     0.11200
H2024       H  0.17711022  0.87456082  0.46428849     0.10000
C2025       C  0.14567315  0.92684136  0.64191611    -0.03800
C2026       C  0.12824334  0.93734918  0.65010002    -0.09600
C2027       C  0.12653335  0.95902435  0.64829492    -0.17200
C2028       C  0.14211519  0.97046600  0.63816249     0.24900
C2029       C  0.15915162  0.96006045  0.62937888    -0.18900
C2030       C  0.16094307  0.93841693  0.63124017    -0.07800
C2031       C  0.14125608  0.99292625  0.63773790    -0.14200
C2032       C  0.14144037  0.01174356  0.63814146    -0.14000
C2033       C  0.14257431  0.03417095  0.63931506     0.24800
C2034       C  0.15092495  0.04562463  0.62273071    -0.19400
C2035       C  0.15284199  0.06730530  0.62422386    -0.07900
C2036       C  0.14648187  0.07785757  0.64238911    -0.03900
C2037       C  0.13788714  0.06622137  0.65888525    -0.09200
C2038       C  0.13596836  0.04454597  0.65734165    -0.16900
H2039       H  0.11620048  0.92890131  0.65837894     0.11300
H2040       H  0.11328038  0.96689467  0.65517531     0.10500
H2041       H  0.17129878  0.96873120  0.62147314     0.10500
H2042       H  0.17446403  0.93079629  0.62462420     0.11000
H2043       H  0.15616883  0.03777740  0.60872934     0.11100
H2044       H  0.15956325  0.07576296  0.61125587     0.11000
H2045       H  0.13285803  0.07382748  0.67308599     0.11200
H2046       H  0.12954223  0.03585252  0.67031632     0.10000
C2047       C  0.30224203  0.69539605  0.62740489    -0.03800
C2048       C  0.30710937  0.71557319  0.62031699    -0.09600
C2049       C  0.29167349  0.73090348  0.61911214    -0.17200
C2050       C  0.27115119  0.72628336  0.62487012     0.24900
C2051       C  0.26608473  0.70617624  0.63166441    -0.18900
C2052       C  0.28151439  0.69083002  0.63295935    -0.07800
C2053       C  0.25545623  0.74233386  0.62440735    -0.14200
C2054       C  0.24241038  0.75587169  0.62469598    -0.14000
C2055       C  0.22676652  0.77193746  0.62588621     0.24800
C2056       C  0.20814904  0.76817144  0.63658808    -0.19400
C2057       C  0.19308391  0.78381325  0.63820802    -0.07900
C2058       C  0.19643294  0.80352226  0.62916757    -0.03900
C2059       C  0.21518596  0.80716465  0.61838279    -0.09200
C2060       C  0.23023505  0.79145177  0.61674939    -0.16900
H2061       H  0.32291460  0.71961689  0.61599100     0.11300
H2062       H  0.29579475  0.74642170  0.61389021     0.10500
H2063       H  0.25025194  0.70241968  0.63618224     0.10500
H2064       H  0.27724317  0.67544827  0.63843465     0.11000
H2065       H  0.20531384  0.75316460  0.64378288     0.11100
H2066       H  0.17886436  0.78049883  0.64667944     0.11000
H2067       H  0.21824587  0.82214527  0.61125092     0.11200
H2068       H  0.24461584  0.79456168  0.60845953     0.10000
C2069       C  0.13371053  0.80845251  0.69702407    -0.03800
C2070       C  0.14289363  0.81139684  0.71672733    -0.09600
C2071       C  0.14190075  0.79572118  0.73181111    -0.17200
C2072       C  0.13170702  0.77693896  0.72743410     0.24900
C2073       C  0.12238372  0.77391587  0.70795369    -0.18900
C2074       C  0.12337539  0.78955826  0.69282573    -0.07800
C2075       C  0.13117344  0.76066278  0.74282440    -0.14200
C2076       C  0.13133832  0.74718592  0.75589485    -0.14000
C2077       C  0.13233672  0.73143870  0.77180212     0.24800
C2078       C  0.12135302  0.71271988  0.76952561    -0.19400
C2079       C  0.12265507  0.69734079  0.78492116    -0.07900
C2080       C  0.13490536  0.70058319  0.80282331    -0.03900
C2081       C  0.14581679  0.71949117  0.80497444    -0.09200
C2082       C  0.14455797  0.73477935  0.78954316    -0.16900
H2083       H  0.15102467  0.82572464  0.72042713     0.11300
H2084       H  0.14921006  0.79819466  0.74683692     0.10500
H2085       H  0.11447741  0.75941643  0.70440457     0.10500
H2086       H  0.11616815  0.78680012  0.67781274     0.11000
H2087       H  0.11185363  0.70998349  0.75582975     0.11100
H2088       H  0.11405941  0.68296284  0.78283746     0.11000
H2089       H  0.15547312  0.72241807  0.81851311     0.11200
H2090       H  0.15317138  0.74918767  0.79142314     0.10000
C2091       C  0.20051194  0.87245977  0.69326623    -0.03800
C2092       C  0.22096820  0.86532196  0.68988180    -0.09600
C2093       C  0.23588446  0.86650854  0.70574473    -0.17200
C2094       C  0.23060763  0.87479198  0.72522804     0.24900
C2095       C  0.21034163  0.88207841  0.72871574    -0.18900
C2096       C  0.19539360  0.88094606  0.71285448    -0.07800
C2097       C  0.24587302  0.87528741  0.74173185    -0.14200
C2098       C  0.25879663  0.87499626  0.75541572    -0.14000
C2099       C  0.27433074  0.87393511  0.77163825     0.24800
C2100       C  0.26942773  0.86498700  0.79092432    -0.19400
C2101       C  0.28459129  0.86352976  0.80653790    -0.07900
C2102       C  0.30491250  0.87105009  0.80308507    -0.03900
C2103       C  0.30968275  0.88004200  0.78364502    -0.09200
C2104       C  0.29449615  0.88145764  0.76805125    -0.16900
H2105       H  0.22542288  0.85867354  0.67502162     0.11300
H2106       H  0.25150207  0.86077913  0.70286423     0.10500
H2107       H  0.20604051  0.88846736  0.74374446     0.10500
H2108       H  0.17977584  0.88650075  0.71601128     0.11000
H2109       H  0.25390105  0.85903174  0.79386385     0.11100
H2110       H  0.28041623  0.85644807  0.82127622     0.11000
H2111       H  0.32518739  0.88588272  0.78042582     0.11200
H2112       H  0.29851713  0.88832999  0.75316157     0.10000
C2113       C  0.57856883  0.35530669  0.64237588    -0.03800
C2114       C  0.56694594  0.36525022  0.65810578    -0.09600
C2115       C  0.54523454  0.36646533  0.65674479    -0.17200
C2116       C  0.53479165  0.35775694  0.63968604     0.24900
C2117       C  0.54620053  0.34794457  0.62388135    -0.18900
C2118       C  0.56794890  0.34675283  0.62517786    -0.07800
C2119       C  0.51236370  0.35854799  0.63870065    -0.14200
C2120       C  0.49355951  0.35899068  0.63864549    -0.14000
C2121       C  0.47111574  0.35906387  0.63954809     0.24800
C2122       C  0.45934636  0.35218535  0.62249929    -0.19400
C2123       C  0.43758961  0.35125970  0.62384423    -0.07900
C2124       C  0.42732276  0.35718043  0.64230850    -0.03900
C2125       C  0.43928834  0.36449001  0.65919340    -0.09200
C2126       C  0.46101229  0.36539212  0.65780917    -0.16900
H2127       H  0.57460960  0.37196751  0.67156671     0.11300
H2128       H  0.53657557  0.37405554  0.66909788     0.10500
H2129       H  0.53828012  0.34107482  0.61063742     0.10500
H2130       H  0.57640862  0.33889253  0.61287050     0.11000
H2131       H  0.46699603  0.34724258  0.60828196     0.11100
H2132       H  0.42884851  0.34557197  0.61056581     0.11000
H2133       H  0.43190265  0.36916996  0.67362855     0.11200
H2134       H  0.46995178  0.37073680  0.67111187     0.10000
C2135       C  0.64843348  0.35566105  0.57301330    -0.03800
C2136       C  0.64048574  0.33897085  0.56118078    -0.09600
C2137       C  0.63919865  0.34038301  0.53945615    -0.17200
C2138       C  0.64578587  0.35848252  0.52921017     0.24900
C2139       C  0.65349877  0.37526494  0.54084743    -0.18900
C2140       C  0.65479818  0.37389635  0.56259138    -0.07800
C2141       C  0.64499234  0.35961381  0.50675806    -0.14200
C2142       C  0.64462109  0.35991939  0.48793437    -0.14000
C2143       C  0.64466910  0.35932088  0.46544811     0.24800
C2144       C  0.65242084  0.37617359  0.45394013    -0.19400
C2145       C  0.65359408  0.37499215  0.43216692    -0.07900
C2146       C  0.64708195  0.35687555  0.42161553    -0.03900
C2147       C  0.63879810  0.34025993  0.43330542    -0.09200
C2148       C  0.63763541  0.34148493  0.45503769    -0.16900
H2149       H  0.63548126  0.32470363  0.56867873     0.11300
H2150       H  0.63323051  0.32727263  0.53063369     0.10500
H2151       H  0.65868103  0.38934670  0.53310398     0.10500
H2152       H  0.66102682  0.38701296  0.57120419     0.11000
H2153       H  0.65788999  0.39007974  0.46181040     0.11100
H2154       H  0.65999262  0.38808224  0.42364634     0.11000
H2155       H  0.63357141  0.32612488  0.42570099     0.11200
H2156       H  0.63157457  0.32834943  0.46375237     0.10000
C2157       C  0.57797334  0.14681736  0.85272382    -0.03800
C2158       C  0.56734056  0.12984136  0.84373833    -0.09600
C2159       C  0.54560887  0.12845490  0.84496217    -0.17200
C2160       C  0.53419475  0.14392171  0.85527096     0.24900
C2161       C  0.54466162  0.16064534  0.86461850    -0.18900
C2162       C  0.56638703  0.16211356  0.86334506    -0.07800
C2163       C  0.51173165  0.14307976  0.85558301    -0.14200
C2164       C  0.49291366  0.14308003  0.85529257    -0.14000
C2165       C  0.47046946  0.14402056  0.85444351     0.24800
C2166       C  0.45998553  0.16108455  0.86306885    -0.19400
C2167       C  0.43829257  0.16253427  0.86156693    -0.07900
C2168       C  0.42671960  0.14687893  0.85142959    -0.03900
C2169       C  0.43736284  0.12963250  0.84303316    -0.09200
C2170       C  0.45909577  0.12825605  0.84449391    -0.16900
H2171       H  0.57576776  0.11783812  0.83539207     0.11300
H2172       H  0.53769125  0.11546765  0.83761131     0.10500
H2173       H  0.53600327  0.17272538  0.87262778     0.10500
H2174       H  0.57408282  0.17534842  0.87046544     0.11000
H2175       H  0.46860721  0.17340420  0.87077388     0.11100
H2176       H  0.43060374  0.17600118  0.86821772     0.11000
H2177       H  0.42893811  0.11736436  0.83505553     0.11200
H2178       H  0.46703655  0.11500627  0.83768515     0.10000
C2179       C  0.64810917  0.14626416  0.07289009    -0.03800
C2180       C  0.66439082  0.13709713  0.06141471    -0.09600
C2181       C  0.66311927  0.13553792  0.03971869    -0.17200
C2182       C  0.64558809  0.14309954  0.02919481     0.24900
C2183       C  0.62914692  0.15191631  0.04048633    -0.18900
C2184       C  0.63035670  0.15345408  0.06220019    -0.07800
C2185       C  0.64483451  0.14244203  0.00678220    -0.14200
C2186       C  0.64483564  0.14241928  0.98798816    -0.14000
C2187       C  0.64553635  0.14299171  0.96557074     0.24800
C2188       C  0.62986834  0.15321398  0.95437784    -0.19400
C2189       C  0.63100537  0.15450275  0.93264909    -0.07900
C2190       C  0.64793270  0.14568160  0.92183597    -0.03900
C2191       C  0.66346772  0.13521108  0.93321542    -0.09200
C2192       C  0.66224437  0.13386574  0.95493508    -0.16900
H2193       H  0.67824173  0.13137168  0.06916547     0.11300
H2194       H  0.67594200  0.12869599  0.03112723     0.10500
H2195       H  0.61551665  0.15785554  0.03248871     0.10500
H2196       H  0.61756652  0.16060839  0.07056414     0.11000
H2197       H  0.61690489  0.16040218  0.96245829     0.11100
H2198       H  0.61884834  0.16276607  0.92436423     0.11000
H2199       H  0.67667721  0.12824897  0.92535986     0.11200
H2200       H  0.67447541  0.12593829  0.96345465     0.10000
C2201       C  0.63382187  0.30832284  0.69760438    -0.03800
C2202       C  0.63864479  0.31369468  0.71832742    -0.09600
C2203       C  0.63719069  0.29886818  0.73420724    -0.17200
C2204       C  0.63098283  0.27848252  0.72959895     0.24900
C2205       C  0.62606739  0.27299332  0.70906184    -0.18900
C2206       C  0.62742577  0.28782195  0.69315239    -0.07800
C2207       C  0.63017695  0.26308124  0.74585288    -0.14200
C2208       C  0.63009549  0.24998786  0.75930652    -0.14000
C2209       C  0.63068497  0.23402207  0.77500973     0.24800
C2210       C  0.62287990  0.21413861  0.77061217    -0.19400
C2211       C  0.62413704  0.19834936  0.78555072    -0.07900
C2212       C  0.63326610  0.20226337  0.80509724    -0.03900
C2213       C  0.64090677  0.22237487  0.80944512    -0.09200
C2214       C  0.63960929  0.23814301  0.79447983    -0.16900
H2215       H  0.64360356  0.32934208  0.72227298     0.11300
H2216       H  0.64107251  0.30326349  0.75004994     0.10500
H2217       H  0.62133151  0.25721749  0.70532253     0.10500
H2218       H  0.62371890  0.28317537  0.67735088     0.11000
H2219       H  0.61600014  0.21078125  0.75555552     0.11100
H2220       H  0.61816030  0.18303689  0.78171000     0.11000
H2221       H  0.64804612  0.22589052  0.82433701     0.11200
H2222       H  0.64574760  0.25347714  0.79801748     0.10000
C2223       C  0.92765362  0.35654223  0.85355818    -0.03800
C2224       C  0.93801907  0.35023838  0.87184473    -0.09600
C2225       C  0.95973166  0.35196123  0.87341860    -0.17200
C2226       C  0.97133767  0.36003522  0.85678254     0.24900
C2227       C  0.96112558  0.36656098  0.83866701    -0.18900
C2228       C  0.93947576  0.36484560  0.83704853    -0.07800
C2229       C  0.99376217  0.36096208  0.85783198    -0.14200
C2230       C  0.01257040  0.36120177  0.85753538    -0.14000
C2231       C  0.03498260  0.36065108  0.85608452     0.24800
C2232       C  0.04485221  0.36625417  0.83744871    -0.19400
C2233       C  0.06651574  0.36467255  0.83558908    -0.07900
C2234       C  0.07862924  0.35740578  0.85237008    -0.03900
C2235       C  0.06858839  0.35210148  0.87114394    -0.09200
C2236       C  0.04692015  0.35371707  0.87296689    -0.16900
H2237       H  0.92939744  0.34373329  0.88481268     0.11300
H2238       H  0.96747534  0.34677755  0.88749721     0.10500
H2239       H  0.96993517  0.37276030  0.82566169     0.10500
H2240       H  0.93202927  0.36982115  0.82274712     0.11000
H2241       H  0.03577100  0.37157970  0.82424636     0.11100
H2242       H  0.07373188  0.36885328  0.82091746     0.11000
H2243       H  0.07744282  0.34646472  0.88435704     0.11200
H2244       H  0.03945788  0.34928505  0.88744910     0.10000
C2245       C  0.85718923  0.35742991  0.92200798    -0.03800
C2246       C  0.85027968  0.37564398  0.93210069    -0.09600
C2247       C  0.85127778  0.37731965  0.95382108    -0.17200
C2248       C  0.85924560  0.36086573  0.96570556     0.24900
C2249       C  0.86640604  0.34281927  0.95578628    -0.18900
C2250       C  0.86540483  0.34109215  0.93409805    -0.07800
C2251       C  0.85963251  0.36218090  0.98809810    -0.14200
C2252       C  0.85971718  0.36233475  0.00689114    -0.14000
C2253       C  0.85945384  0.36136430  0.02930370     0.24800
C2254       C  0.86925255  0.34480854  0.03955506    -0.19400
C2255       C  0.86809163  0.34313298  0.06124525    -0.07900
C2256       C  0.85713233  0.35805174  0.07299520    -0.03900
C2257       C  0.84771829  0.37490561  0.06259037    -0.09200
C2258       C  0.84881976  0.37649099  0.04087010    -0.16900
H2259       H  0.84382136  0.38847792  0.92325112     0.11300
H2260       H  0.84564609  0.39134255  0.96134699     0.10500
H2261       H  0.87257091  0.32997178  0.96484341     0.10500
H2262       H  0.87083487  0.32686370  0.92683320     0.11000
H2263       H  0.87752890  0.33301479  0.03075389     0.11100
H2264       H  0.87557958  0.33002961  0.06878982     0.11000
H2265       H  0.83912466  0.38661430  0.07117929     0.11200
H2266       H  0.84113484  0.38934808  0.03308456     0.10000
C2267       C  0.80505403  0.36923657  0.80251966    -0.03800
C2268       C  0.78436003  0.36317307  0.80655096    -0.09600
C2269       C  0.76941104  0.36368225  0.79070789    -0.17200
C2270       C  0.77495006  0.37016632  0.77063678     0.24900
C2271       C  0.79549356  0.37618915  0.76646676    -0.18900
C2272       C  0.81045685  0.37577067  0.78230114    -0.07800
C2273       C  0.75959248  0.37055350  0.75429701    -0.14200
C2274       C  0.74679106  0.37076607  0.74054393    -0.14000
C2275       C  0.73156603  0.37073490  0.72407119     0.24800
C2276       C  0.73706001  0.36379794  0.70413658    -0.19400
C2277       C  0.72216997  0.36324705  0.68823565    -0.07900
C2278       C  0.70157159  0.36972071  0.69205985    -0.03900
C2279       C  0.69625606  0.37688835  0.71210153    -0.09200
C2280       C  0.71116321  0.37734849  0.72800069    -0.16900
H2281       H  0.77971903  0.35800877  0.82193528     0.11300
H2282       H  0.75355599  0.35895820  0.79409711     0.10500
H2283       H  0.79995946  0.38116350  0.75096082     0.10500
H2284       H  0.82628503  0.38036235  0.77866146     0.11000
H2285       H  0.75281432  0.35865018  0.70092447     0.11100
H2286       H  0.72675914  0.35764071  0.67298910     0.11000
H2287       H  0.68051249  0.38186070  0.71558069     0.11200
H2288       H  0.70673595  0.38271447  0.74339104     0.10000
C2289       C  0.80867627  0.30271095  0.86627865    -0.03800
C2290       C  0.81259455  0.28242552  0.85890446    -0.09600
C2291       C  0.79711436  0.26711804  0.85980509    -0.17200
C2292       C  0.77749186  0.27183678  0.86804719     0.24900
C2293       C  0.77345000  0.29193312  0.87552749    -0.18900
C2294       C  0.78893275  0.30728613  0.87467048    -0.07800
C2295       C  0.76147858  0.25609868  0.86851234    -0.14200
C2296       C  0.74825229  0.24272669  0.86846329    -0.14000
C2297       C  0.73259362  0.22663597  0.86798011     0.24800
C2298       C  0.71232325  0.23084489  0.87483731    -0.19400
C2299       C  0.69703926  0.21530660  0.87407272    -0.07900
C2300       C  0.70182806  0.19534132  0.86635731    -0.03900
C2301       C  0.72227868  0.19124394  0.85956870    -0.09200
C2302       C  0.73754374  0.20678709  0.86041066    -0.16900
H2303       H  0.82759876  0.27838961  0.85231268     0.11300
H2304       H  0.80041450  0.25163084  0.85394844     0.10500
H2305       H  0.75829489  0.29577187  0.88190934     0.10500
H2306       H  0.78538986  0.32275509  0.88040336     0.11000
H2307       H  0.70829997  0.24616950  0.88067146     0.11100
H2308       H  0.68142388  0.21900265  0.87929296     0.11000
H2309       H  0.72647033  0.17605882  0.85351336     0.11200
H2310       H  0.75317927  0.20335590  0.85503804     0.10000
C2311       C  0.85883811  0.14531714  0.57314929    -0.03800
C2312       C  0.86427262  0.16275891  0.56101079    -0.09600
C2313       C  0.86558556  0.16117978  0.53931959    -0.17200
C2314       C  0.86159392  0.14216327  0.52941021     0.24900
C2315       C  0.85654319  0.12460867  0.54135125    -0.18900
C2316       C  0.85516382  0.12615962  0.56308448    -0.07800
C2317       C  0.86203613  0.14097937  0.50697428    -0.14200
C2318       C  0.86192135  0.14109636  0.48815957    -0.14000
C2319       C  0.86121724  0.14250049  0.46574470     0.24800
C2320       C  0.85482606  0.12540999  0.45376390    -0.19400
C2321       C  0.85325924  0.12718145  0.43206929    -0.07900
C2322       C  0.85805943  0.14611672  0.42207183    -0.03900
C2323       C  0.86477682  0.16309419  0.43424487    -0.09200
C2324       C  0.86630886  0.16128720  0.45590822    -0.16900
H2325       H  0.86713994  0.17774315  0.56822965     0.11300
H2326       H  0.86945609  0.17488870  0.53024430     0.10500
H2327       H  0.85339932  0.10980708  0.53385633     0.10500
H2328       H  0.85096709  0.11243799  0.57197319     0.11000
H2329       H  0.85080435  0.11079607  0.46120610     0.11100
H2330       H  0.84803720  0.11382173  0.42316799     0.11000
H2331       H  0.86855302  0.17789756  0.42707265     0.11200
H2332       H  0.87122179  0.17463820  0.46501475     0.10000
C2333       C  0.92730153  0.14661707  0.64314473    -0.03800
C2334       C  0.93730594  0.14991538  0.62389583    -0.09600
C2335       C  0.95902448  0.14863326  0.62234268    -0.17200
C2336       C  0.97102536  0.14409287  0.63998664     0.24900
C2337       C  0.96120180  0.14060676  0.65914341    -0.18900
C2338       C  0.93950342  0.14180650  0.66072375    -0.07800
C2339       C  0.99343363  0.14364157  0.63866632    -0.14200
C2340       C  0.01223092  0.14388769  0.63829688    -0.14000
C2341       C  0.03465281  0.14495081  0.63872399     0.24800
C2342       C  0.04631877  0.12796783  0.64586068    -0.19400
C2343       C  0.06803258  0.12940214  0.64724133    -0.07900
C2344       C  0.07837468  0.14788863  0.64151221    -0.03900
C2345       C  0.06651798  0.16476439  0.63406723    -0.09200
C2346       C  0.04481593  0.16329114  0.63271506    -0.16900
H2347       H  0.92836991  0.15364101  0.61007294     0.11300
H2348       H  0.96646193  0.15140722  0.60743914     0.10500
H2349       H  0.97033534  0.13716942  0.67292437     0.10500
H2350       H  0.93231862  0.13928972  0.67578568     0.11000
H2351       H  0.03861603  0.11371241  0.65061517     0.11100
H2352       H  0.07668436  0.11613561  0.65305163     0.11000
H2353       H  0.07396942  0.17922656  0.62957722     0.11200
H2354       H  0.03594009  0.17656270  0.62723555     0.10000
C2355       C  0.80795796  0.19857533  0.62851425    -0.03800
C2356       C  0.81048773  0.21835418  0.63766015    -0.09600
C2357       C  0.79447001  0.23308304  0.63674174    -0.17200
C2358       C  0.77572355  0.22827378  0.62667803     0.24900
C2359       C  0.77306972  0.20867204  0.61747665    -0.18900
C2360       C  0.78906405  0.19390086  0.61838297    -0.07800
C2361       C  0.75915688  0.24338269  0.62604008    -0.14200
C2362       C  0.74536752  0.25614443  0.62593469    -0.14000
C2363       C  0.72903039  0.27150861  0.62640225     0.24800
C2364       C  0.70990554  0.26683443  0.63578930    -0.19400
C2365       C  0.69426508  0.28196060  0.63689595    -0.07900
C2366       C  0.69756243  0.30200036  0.62861792    -0.03900
C2367       C  0.71676536  0.30647070  0.61899545    -0.09200
C2368       C  0.73238204  0.29131598  0.61791849    -0.16900
H2369       H  0.82478580  0.22240799  0.64567388     0.11300
H2370       H  0.79667153  0.24818590  0.64396977     0.10500
H2371       H  0.75859805  0.20476505  0.60968763     0.10500
H2372       H  0.78658523  0.17879957  0.61126395     0.11000
H2373       H  0.70715148  0.25156111  0.64242882     0.11100
H2374       H  0.67967491  0.27801947  0.64441725     0.11000
H2375       H  0.71981300  0.32173601  0.61248903     0.11200
H2376       H  0.74714185  0.29511369  0.61063781     0.10000
C2377       C  0.80285014  0.13085578  0.69045848    -0.03800
C2378       C  0.80599321  0.11949890  0.70895463    -0.09600
C2379       C  0.79010991  0.11797720  0.72384734    -0.17200
C2380       C  0.77091907  0.12780393  0.72048344     0.24900
C2381       C  0.76757579  0.13889793  0.70201403    -0.18900
C2382       C  0.78338421  0.14038982  0.68709232    -0.07800
C2383       C  0.75489986  0.12717310  0.73623631    -0.14200
C2384       C  0.74156999  0.12751665  0.74951481    -0.14000
C2385       C  0.72582498  0.12880620  0.76550431     0.24800
C2386       C  0.70745512  0.13998922  0.76188378    -0.19400
C2387       C  0.69244977  0.14183455  0.77759744    -0.07900
C2388       C  0.69562943  0.13253699  0.79721574    -0.03900
C2389       C  0.71408844  0.12121080  0.80066011    -0.09200
C2390       C  0.72906004  0.11936435  0.78490279    -0.16900
H2391       H  0.82075729  0.11192135  0.71198489     0.11300
H2392       H  0.79288693  0.10935122  0.73809170     0.10500
H2393       H  0.75281894  0.14661150  0.69924561     0.10500
H2394       H  0.78044722  0.14927288  0.67304662     0.11000
H2395       H  0.70479360  0.14742117  0.74695929     0.11100
H2396       H  0.67843962  0.15068633  0.77442960     0.11000
H2397       H  0.71701414  0.11384886  0.81555766     0.11200
H2398       H  0.74323300  0.11070404  0.78790901     0.10000
C2399       C  0.87088832  0.19568280  0.69631872    -0.03800
C2400       C  0.88184034  0.21426845  0.69231774    -0.09600
C2401       C  0.88267356  0.23007214  0.70731579    -0.17200
C2402       C  0.87256477  0.22753941  0.72647611     0.24900
C2403       C  0.86178715  0.20904451  0.73067093    -0.18900
C2404       C  0.86096359  0.19320113  0.71572034    -0.07800
C2405       C  0.87295260  0.24403041  0.74169841    -0.14200
C2406       C  0.87296395  0.25787485  0.75441928    -0.14000
C2407       C  0.87269602  0.27437693  0.76963243     0.24800
C2408       C  0.87932686  0.27054681  0.79005162    -0.19400
C2409       C  0.87884575  0.28648849  0.80491136    -0.07900
C2410       C  0.87165749  0.30649595  0.79954177    -0.03900
C2411       C  0.86505579  0.31020368  0.77895279    -0.09200
C2412       C  0.86560879  0.29424465  0.76410645    -0.16900
H2413       H  0.88965571  0.21666354  0.67755160     0.11300
H2414       H  0.89106504  0.24432496  0.70390430     0.10500
H2415       H  0.85388573  0.20692750  0.74544456     0.10500
H2416       H  0.85235740  0.17912019  0.71926646     0.11000
H2417       H  0.88478045  0.25520815  0.79451736     0.11100
H2418       H  0.88389227  0.28308032  0.82065068     0.11000
H2419       H  0.85937149  0.32540308  0.77433293     0.11200
H2420       H  0.86040523  0.29737400  0.74834982     0.10000
C2421       C  0.57746720  0.64503772  0.64246820    -0.03800
C2422       C  0.56706016  0.65256967  0.62467368    -0.09600
C2423       C  0.54534382  0.65124677  0.62314018    -0.17200
C2424       C  0.53372689  0.64231336  0.63929934     0.24900
C2425       C  0.54397296  0.63432353  0.65682069    -0.18900
C2426       C  0.56567954  0.63566016  0.65841219    -0.07800
C2427       C  0.51127717  0.64214694  0.63835218    -0.14200
C2428       C  0.49247126  0.64266325  0.63824183    -0.14000
C2429       C  0.47004333  0.64384457  0.63889396     0.24800
C2430       C  0.45856489  0.62841892  0.64919160    -0.19400
C2431       C  0.43686072  0.62993272  0.65051098    -0.07900
C2432       C  0.42631915  0.64699841  0.64164140    -0.03900
C2433       C  0.43797417  0.66234752  0.63117044    -0.09200
C2434       C  0.45968244  0.66074445  0.62978807    -0.16900
H2435       H  0.57564614  0.65988148  0.61211639     0.11300
H2436       H  0.53759410  0.65751263  0.60951328     0.10500
H2437       H  0.53514968  0.62738161  0.66943521     0.10500
H2438       H  0.57318538  0.62967163  0.67228547     0.11000
H2439       H  0.46640783  0.61532038  0.65638853     0.11100
H2440       H  0.42837716  0.61791644  0.65878901     0.11000
H2441       H  0.43033950  0.67566745  0.62417988     0.11200
H2442       H  0.46840416  0.67280918  0.62181718     0.10000
C2443       C  0.64835916  0.57669000  0.64184099    -0.03800
C2444       C  0.66465522  0.56544254  0.63239000    -0.09600
C2445       C  0.66356220  0.54372971  0.63060641    -0.17200
C2446       C  0.64620349  0.53293510  0.63824747     0.24900
C2447       C  0.62984704  0.54399436  0.64751329    -0.18900
C2448       C  0.63087708  0.56571051  0.64927168    -0.07800
C2449       C  0.64545950  0.51049386  0.63715024    -0.14200
C2450       C  0.64532915  0.49167700  0.63688772    -0.14000
C2451       C  0.64607209  0.46921992  0.63742803     0.24800
C2452       C  0.62850715  0.45767874  0.64335223    -0.19400
C2453       C  0.62971013  0.43595221  0.64510279    -0.07900
C2454       C  0.64853473  0.42549575  0.64094892    -0.03900
C2455       C  0.66594519  0.43721790  0.63453859    -0.09200
C2456       C  0.66471146  0.45889827  0.63284041    -0.16900
H2457       H  0.67834247  0.57339526  0.62652855     0.11300
H2458       H  0.67635356  0.53534664  0.62345852     0.10500
H2459       H  0.61637145  0.53581151  0.65356830     0.10500
H2460       H  0.61811569  0.57386182  0.65671086     0.11000
H2461       H  0.61398793  0.46549429  0.64695117     0.11100
H2462       H  0.61601494  0.42739077  0.65001424     0.11000
H2463       H  0.68067007  0.42968843  0.63121186     0.11200
H2464       H  0.67841886  0.46764768  0.62826947     0.10000
C2465       C  0.64671280  0.64659843  0.42238790    -0.03800
C2466       C  0.66238561  0.63697424  0.43433387    -0.09600
C2467       C  0.66056241  0.63563789  0.45601308    -0.17200
C2468       C  0.64307857  0.64388069  0.46610338     0.24900
C2469       C  0.62719239  0.65311722  0.45433866    -0.18900
C2470       C  0.62895379  0.65442893  0.43262077    -0.07800
C2471       C  0.64191344  0.64355240  0.48855071    -0.14200
C2472       C  0.64180984  0.64379576  0.50736972    -0.14000
C2473       C  0.64258172  0.64470888  0.52981708     0.24800
C2474       C  0.63683007  0.66300451  0.54020738    -0.19400
C2475       C  0.63847794  0.66429739  0.56190907    -0.07900
C2476       C  0.64598201  0.64729205  0.57355446    -0.03900
C2477       C  0.65142531  0.62884518  0.56300065    -0.09200
C2478       C  0.64974884  0.62759022  0.54128217    -0.16900
H2479       H  0.67621832  0.63072681  0.42696443     0.11300
H2480       H  0.67296297  0.62845767  0.46493972     0.10500
H2481       H  0.61359485  0.65958558  0.46197106     0.10500
H2482       H  0.61661404  0.66193575  0.42389952     0.11000
H2483       H  0.63131355  0.67637807  0.53150791     0.11100
H2484       H  0.63417022  0.67872970  0.56952312     0.11000
H2485       H  0.65724932  0.61547623  0.57148559     0.11200
H2486       H  0.65429328  0.61335860  0.53341439     0.10000
C2487       C  0.85855710  0.42593088  0.85282694    -0.03800
C2488       C  0.84174798  0.43777793  0.86046751    -0.09600
C2489       C  0.84328115  0.45945640  0.86208882    -0.17200
C2490       C  0.86162264  0.46965488  0.85615698     0.24900
C2491       C  0.87860184  0.45799718  0.84894514    -0.18900
C2492       C  0.87710910  0.43627642  0.84730565    -0.07800
C2493       C  0.86260910  0.49210491  0.85670108    -0.14200
C2494       C  0.86253375  0.51092192  0.85654898    -0.14000
C2495       C  0.86155151  0.53335856  0.85569301     0.24800
C2496       C  0.87755924  0.54471465  0.84616309    -0.19400
C2497       C  0.87616263  0.56641860  0.84455778    -0.07900
C2498       C  0.85864537  0.57706836  0.85236872    -0.03900
C2499       C  0.84275340  0.56553537  0.86214516    -0.09200
C2500       C  0.84422514  0.54384448  0.86379798    -0.16900
H2501       H  0.82725822  0.43033771  0.86489526     0.11300
H2502       H  0.83002761  0.46829634  0.86767299     0.10500
H2503       H  0.89288213  0.46571707  0.84428708     0.10500
H2504       H  0.89034422  0.42763573  0.84140795     0.11000
H2505       H  0.89100761  0.53677672  0.83975800     0.11100
H2506       H  0.88862907  0.57481135  0.83686841     0.11000
H2507       H  0.82908338  0.57324375  0.86833574     0.11200
H2508       H  0.83171312  0.53522325  0.87117438     0.10000
C2509       C  0.92806032  0.64544331  0.85271180    -0.03800
C2510       C  0.93960951  0.63493595  0.83730815    -0.09600
C2511       C  0.96124047  0.63308583  0.83904677    -0.17200
C2512       C  0.97164606  0.64169783  0.85617187     0.24900
C2513       C  0.96026486  0.65180337  0.87180674    -0.18900
C2514       C  0.93859701  0.65361771  0.87013985    -0.07800
C2515       C  0.99405792  0.64105818  0.85711344    -0.14200
C2516       C  0.01285162  0.64139480  0.85704399    -0.14000
C2517       C  0.03522449  0.64288127  0.85609428     0.24800
C2518       C  0.04507075  0.66167052  0.86116595    -0.19400
C2519       C  0.06669210  0.66356337  0.85934151    -0.07900
C2520       C  0.07879425  0.64666438  0.85235039    -0.03900
C2521       C  0.06878660  0.62773211  0.84754715    -0.09200
C2522       C  0.04713400  0.62587890  0.84939571    -0.16900
H2523       H  0.93197209  0.62839282  0.82374751     0.11300
H2524       H  0.96989118  0.62525910  0.82683619     0.10500
H2525       H  0.96817031  0.65859188  0.88510155     0.10500
H2526       H  0.93016775  0.66180751  0.88225381     0.11000
H2527       H  0.03600229  0.67495369  0.86630192     0.11100
H2528       H  0.07388806  0.67834922  0.86316240     0.11000
H2529       H  0.07764756  0.61442900  0.84214035     0.11200
H2530       H  0.03966665  0.61127317  0.84536888     0.10000
C2531       C  0.85813183  0.64705772  0.92091909    -0.03800
C2532       C  0.84921926  0.63015688  0.93170087    -0.09600
C2533       C  0.85040204  0.62904534  0.95345528    -0.17200
C2534       C  0.86059675  0.64470748  0.96473185     0.24900
C2535       C  0.86984154  0.66137848  0.95412343    -0.18900
C2536       C  0.86860805  0.66257190  0.93238123    -0.07800
C2537       C  0.86100657  0.64400782  0.98719087    -0.14200
C2538       C  0.86075908  0.64377041  0.00600393    -0.14000
C2539       C  0.85981880  0.64397853  0.02845383     0.24800
C2540       C  0.84171292  0.63738370  0.03868003    -0.19400
C2541       C  0.84039341  0.63841924  0.06041848    -0.07900
C2542       C  0.85719309  0.64611878  0.07225489    -0.03900
C2543       C  0.87548082  0.65234538  0.06185429    -0.09200
C2544       C  0.87675299  0.65130464  0.04010533    -0.16900
H2545       H  0.84098631  0.61800011  0.92337070     0.11300
H2546       H  0.84313971  0.61609073  0.96149758     0.10500
H2547       H  0.87777090  0.67359862  0.96267208     0.10500
H2548       H  0.87568010  0.67575639  0.92456600     0.11000
H2549       H  0.82849694  0.63169424  0.02982901     0.11100
H2550       H  0.82609435  0.63350739  0.06791646     0.11000
H2551       H  0.88868435  0.65836439  0.07048486     0.11200
H2552       H  0.89084264  0.65646991  0.03236705     0.10000
C2553       C  0.80573943  0.63293707  0.80132701    -0.03800
C2554       C  0.81029982  0.62269451  0.78245791    -0.09600
C2555       C  0.79554740  0.62192304  0.76641518    -0.17200
C2556       C  0.77606841  0.63138153  0.76898696     0.24900
C2557       C  0.77137503  0.64155715  0.78770641    -0.18900
C2558       C  0.78608475  0.64233783  0.80377398    -0.07800
C2559       C  0.76093637  0.63085044  0.75240123    -0.14200
C2560       C  0.74803784  0.63081206  0.73871413    -0.14000
C2561       C  0.73238146  0.63124755  0.72261977     0.24800
C2562       C  0.71236538  0.62354316  0.72661110    -0.19400
C2563       C  0.69699341  0.62440699  0.71117385    -0.07900
C2564       C  0.70143754  0.63303750  0.69150559    -0.03900
C2565       C  0.72164060  0.64067414  0.68761881    -0.09200
C2566       C  0.73699398  0.63975510  0.70307258    -0.16900
H2567       H  0.82530431  0.61537137  0.78003608     0.11300
H2568       H  0.79937102  0.61403286  0.75197923     0.10500
H2569       H  0.75636555  0.64897580  0.78985384     0.10500
H2570       H  0.78211810  0.65044136  0.81804191     0.11000
H2571       H  0.70859495  0.61698725  0.74170844     0.11100
H2572       H  0.68158796  0.61849011  0.71470965     0.11000
H2573       H  0.72556767  0.64745968  0.67267300     0.11200
H2574       H  0.75241809  0.64581263  0.69981925     0.10000
C2575       C  0.42828048  0.85618609  0.85246175    -0.03800
C2576       C  0.43961214  0.86770448  0.83761416    -0.09600
C2577       C  0.46133594  0.86918113  0.83891523    -0.17200
C2578       C  0.47208934  0.85911026  0.85500105     0.24900
C2579       C  0.46094479  0.84774005  0.86993616    -0.18900
C2580       C  0.43919384  0.84633618  0.86873568    -0.07800
C2581       C  0.49456396  0.85991396  0.85580155    -0.14200
C2582       C  0.51339600  0.85994019  0.85598752    -0.14000
C2583       C  0.53587452  0.85905980  0.85553846     0.24800
C2584       C  0.54621116  0.84117458  0.86253357    -0.19400
C2585       C  0.56791738  0.83971739  0.86101161    -0.07900
C2586       C  0.57964375  0.85615670  0.85242981    -0.03900
C2587       C  0.56915989  0.87428458  0.84588433    -0.09200
C2588       C  0.54743290  0.87568961  0.84739707    -0.16900
H2589       H  0.43169755  0.87548961  0.82490757     0.11300
H2590       H  0.46976213  0.87799443  0.82723302     0.10500
H2591       H  0.46908424  0.83978440  0.88240221     0.10500
H2592       H  0.43096504  0.83723532  0.88032395     0.11000
H2593       H  0.53745784  0.82819976  0.86887300     0.11100
H2594       H  0.57547565  0.82558399  0.86627470     0.11000
H2595       H  0.57769858  0.88724341  0.83925068     0.11200
H2596       H  0.53963116  0.88961930  0.84192194     0.10000
C2597       C  0.64704494  0.92622398  0.85231188    -0.03800
C2598       C  0.64137909  0.93778969  0.83454526    -0.09600
C2599       C  0.63957368  0.95946211  0.83553691    -0.17200
C2600       C  0.64328432  0.96994239  0.85428882     0.24900
C2601       C  0.64846894  0.95857127  0.87219136    -0.18900
C2602       C  0.65035051  0.93683697  0.87122700    -0.07800
C2603       C  0.64255851  0.99238930  0.85483054    -0.14200
C2604       C  0.64262978  0.01119805  0.85451421    -0.14000
C2605       C  0.64349805  0.03362867  0.85359669     0.24800
C2606       C  0.65236118  0.04492185  0.87002671    -0.19400
C2607       C  0.65395052  0.06663133  0.86883384    -0.07900
C2608       C  0.64675626  0.07736542  0.85110904    -0.03900
C2609       C  0.63765125  0.06589177  0.83476282    -0.09200
C2610       C  0.63604408  0.04417804  0.83601520    -0.16900
H2611       H  0.63873550  0.93014482  0.81972875     0.11300
H2612       H  0.63558996  0.96808013  0.82157098     0.10500
H2613       H  0.65138091  0.96652420  0.88680204     0.10500
H2614       H  0.65467116  0.92839113  0.88518329     0.11000
H2615       H  0.65825076  0.03692537  0.88368111     0.11100
H2616       H  0.66109578  0.07496650  0.88165804     0.11000
H2617       H  0.63196804  0.07366192  0.82090222     0.11200
H2618       H  0.62919720  0.03560334  0.82317360     0.10000
C2619       C  0.64704150  0.85540019  0.07305950    -0.03800
C2620       C  0.62772413  0.85200890  0.06323099    -0.09600
C2621       C  0.62602864  0.85309169  0.04152068    -0.17200
C2622       C  0.64360351  0.85752797  0.02939312     0.24900
C2623       C  0.66282532  0.86111337  0.03904247    -0.18900
C2624       C  0.66454836  0.86011342  0.06072343    -0.07800
C2625       C  0.64215954  0.85795722  0.00702740    -0.14200
C2626       C  0.64211119  0.85804341  0.98824490    -0.14000
C2627       C  0.64352278  0.85784841  0.96587345     0.24800
C2628       C  0.66164044  0.86510267  0.95616105    -0.19400
C2629       C  0.66355705  0.86419242  0.93449385    -0.07900
C2630       C  0.64734450  0.85597610  0.92221540    -0.03900
C2631       C  0.62905680  0.84895035  0.93210567    -0.09200
C2632       C  0.62718430  0.84987385  0.95381331    -0.16900
H2633       H  0.61396123  0.84836894  0.07229943     0.11300
H2634       H  0.61107758  0.85027520  0.03419594     0.10500
H2635       H  0.67654117  0.86450038  0.02978475     0.10500
H2636       H  0.67965555  0.86270686  0.06778808     0.11000
H2637       H  0.67440443  0.87124663  0.96536437     0.11100
H2638       H  0.67785216  0.86967722  0.92739298     0.11000
H2639       H  0.61631988  0.84248203  0.92310931     0.11200
H2640       H  0.61311196  0.84415596  0.96119262     0.10000
C2641       C  0.63723314  0.80271262  0.80314854    -0.03800
C2642       C  0.64743973  0.78351737  0.80598672    -0.09600
C2643       C  0.64647593  0.76811616  0.79061177    -0.17200
C2644       C  0.63529857  0.77166877  0.77223203     0.24900
C2645       C  0.62525967  0.79077474  0.76916650    -0.18900
C2646       C  0.62623667  0.80623155  0.78450483    -0.07800
C2647       C  0.63402323  0.75563028  0.75661861    -0.14200
C2648       C  0.63313530  0.74200253  0.74371858    -0.14000
C2649       C  0.63263040  0.72561737  0.72842283     0.24800
C2650       C  0.62050257  0.72773032  0.71041159    -0.19400
C2651       C  0.62072867  0.71214384  0.69515939    -0.07900
C2652       C  0.63304322  0.69420955  0.69781603    -0.03900
C2653       C  0.64484579  0.69205817  0.71618003    -0.09200
C2654       C  0.64467302  0.70769438  0.73133653    -0.16900
H2655       H  0.65618242  0.78039073  0.82008339     0.11300
H2656       H  0.65437638  0.75340811  0.79309733     0.10500
H2657       H  0.61661356  0.79369583  0.75495822     0.10500
H2658       H  0.61830158  0.82087210  0.78181197     0.11000
H2659       H  0.61108894  0.74153628  0.70803452     0.11100
H2660       H  0.61143791  0.71421689  0.68122240     0.11000
H2661       H  0.65456338  0.67848839  0.71864985     0.11200
H2662       H  0.65412985  0.70591333  0.74521630     0.10000
C2663       C  0.70360589  0.80867873  0.86698723    -0.03800
C2664       C  0.69939676  0.78915414  0.87606030    -0.09600
C2665       C  0.71477512  0.77373029  0.87675702    -0.17200
C2666       C  0.73455403  0.77758779  0.86841834     0.24900
C2667       C  0.73894695  0.79700122  0.85949828    -0.18900
C2668       C  0.72360050  0.81245490  0.85878376    -0.07800
C2669       C  0.75024264  0.76154716  0.86872123    -0.14200
C2670       C  0.76343995  0.74816859  0.86855822    -0.14000
C2671       C  0.77933085  0.73234896  0.86774528     0.24800
C2672       C  0.79783880  0.73609595  0.85684116    -0.19400
C2673       C  0.81311588  0.72063087  0.85554834    -0.07900
C2674       C  0.81005829  0.70113677  0.86511198    -0.03900
C2675       C  0.79147115  0.69756937  0.87621159    -0.09200
C2676       C  0.77622282  0.71309539  0.87751816    -0.16900
H2677       H  0.68416179  0.78571410  0.88245304     0.11300
H2678       H  0.71118926  0.75874867  0.88366864     0.10500
H2679       H  0.75419520  0.80014765  0.85295842     0.10500
H2680       H  0.72733391  0.82727215  0.85162058     0.11000
H2681       H  0.80040385  0.75093190  0.84920299     0.11100
H2682       H  0.82722132  0.72387136  0.84686391     0.11000
H2683       H  0.78865695  0.68275587  0.88378576     0.11200
H2684       H  0.76195439  0.71002718  0.88601350     0.10000
C2685       C  0.85644927  0.85630714  0.57172580    -0.03800
C2686       C  0.83910973  0.86230538  0.55970038    -0.09600
C2687       C  0.84062854  0.86374448  0.53799688    -0.17200
C2688       C  0.85948631  0.85929944  0.52798257     0.24900
C2689       C  0.87687501  0.85348999  0.53980711    -0.18900
C2690       C  0.87538409  0.85198550  0.56152407    -0.07800
C2691       C  0.86078209  0.86015194  0.50556051    -0.14200
C2692       C  0.86130770  0.86022432  0.48675034    -0.14000
C2693       C  0.86118087  0.85935877  0.46429374     0.24800
C2694       C  0.86746380  0.84114062  0.45408509    -0.19400
C2695       C  0.86622898  0.83973191  0.43237000    -0.07900
C2696       C  0.85862582  0.85654709  0.42051952    -0.03900
C2697       C  0.85276172  0.87497604  0.43088351    -0.09200
C2698       C  0.85401613  0.87634395  0.45262814    -0.16900
H2699       H  0.82427912  0.86563113  0.56702835     0.11300
H2700       H  0.82703257  0.86815931  0.52901059     0.10500
H2701       H  0.89153861  0.84994328  0.53223049     0.10500
H2702       H  0.88901190  0.84730241  0.57030427     0.11000
H2703       H  0.87301032  0.82788280  0.46294027     0.11100
H2704       H  0.87088827  0.82533080  0.42490501     0.11000
H2705       H  0.84686812  0.88820653  0.42223396     0.11200
H2706       H  0.84908573  0.89052451  0.46035590     0.10000
C2707       C  0.07779720  0.85670361  0.64296460    -0.03800
C2708       C  0.06778479  0.85146653  0.62415457    -0.09600
C2709       C  0.04605524  0.85236441  0.62255715    -0.17200
C2710       C  0.03404255  0.85850979  0.63969860     0.24900
C2711       C  0.04386968  0.86397514  0.65839584    -0.18900
C2712       C  0.06558443  0.86311170  0.66002990    -0.07800
C2713       C  0.01163151  0.85876655  0.63829551    -0.14200
C2714       C  0.99283695  0.85860554  0.63766339    -0.14000
C2715       C  0.97039010  0.85794370  0.63773430     0.24800
C2716       C  0.95895094  0.87502610  0.64501938    -0.19400
C2717       C  0.93720810  0.87392739  0.64627208    -0.07900
C2718       C  0.92660972  0.85566254  0.64029604    -0.03900
C2719       C  0.93822658  0.83876363  0.63250326    -0.09200
C2720       C  0.95995788  0.83990460  0.63126975    -0.16900
H2721       H  0.07671477  0.84644936  0.61074237     0.11300
H2722       H  0.03861647  0.84806918  0.60801332     0.10500
H2723       H  0.03473426  0.86871541  0.67178361     0.10500
H2724       H  0.07277675  0.86719088  0.67474955     0.11000
H2725       H  0.96685964  0.88907315  0.65006803     0.11100
H2726       H  0.92874557  0.88722353  0.65229777     0.11000
H2727       H  0.93056829  0.82449243  0.62773644     0.11200
H2728       H  0.96864327  0.82658133  0.62560495     0.10000
C2729       C  0.85909601  0.07646752  0.64291554    -0.03800
C2730       C  0.87703513  0.06613731  0.65014791    -0.09600
C2731       C  0.87869327  0.04445138  0.64848116    -0.17200
C2732       C  0.86250506  0.03286989  0.63951833     0.24900
C2733       C  0.84474277  0.04304009  0.63206532    -0.18900
C2734       C  0.84303433  0.06466907  0.63373127    -0.07800
C2735       C  0.86370841  0.01050520  0.63851662    -0.14200
C2736       C  0.86376770  0.99172464  0.63815741    -0.14000
C2737       C  0.86289251  0.96932572  0.63859896     0.24800
C2738       C  0.85269077  0.95837036  0.62270999    -0.19400
C2739       C  0.85078586  0.93667406  0.62383093    -0.07900
C2740       C  0.85896805  0.92570610  0.64096250    -0.03900
C2741       C  0.86954299  0.93684869  0.65663481    -0.09200
C2742       C  0.87148013  0.95849805  0.65544240    -0.16900
H2743       H  0.88964154  0.07476069  0.65734012     0.11300
H2744       H  0.89248675  0.03670717  0.65437318     0.10500
H2745       H  0.83209635  0.03422186  0.62515898     0.10500
H2746       H  0.82901799  0.07211765  0.62801115     0.11000
H2747       H  0.84591906  0.96662479  0.60963151     0.11100
H2748       H  0.84252040  0.92856028  0.61154778     0.11000
H2749       H  0.87607633  0.92887341  0.66999390     0.11200
H2750       H  0.87937553  0.96682512  0.66784023     0.10000
C2751       C  0.80245982  0.80797815  0.62863725    -0.03800
C2752       C  0.80675164  0.78826850  0.62001797    -0.09600
C2753       C  0.79131975  0.77288187  0.61935419    -0.17200
C2754       C  0.77141462  0.77698840  0.62725895     0.24900
C2755       C  0.76699932  0.79653556  0.63586034    -0.18900
C2756       C  0.78240175  0.81193530  0.63656936    -0.07800
C2757       C  0.75553600  0.76114171  0.62669528    -0.14200
C2758       C  0.74209577  0.74799907  0.62658471    -0.14000
C2759       C  0.72600573  0.73236054  0.62702780     0.24800
C2760       C  0.70671731  0.73679615  0.63619051    -0.19400
C2761       C  0.69131579  0.72140463  0.63730991    -0.07900
C2762       C  0.69501797  0.70134546  0.62924476    -0.03900
C2763       C  0.71436779  0.69713296  0.61980827    -0.09200
C2764       C  0.72974750  0.71254344  0.61873464    -0.16900
H2765       H  0.82206403  0.78468464  0.61389808     0.11300
H2766       H  0.79492697  0.75777791  0.61272296     0.10500
H2767       H  0.75165544  0.79986034  0.64207421     0.10500
H2768       H  0.77861588  0.82690352  0.64338679     0.11000
H2769       H  0.70365570  0.75208940  0.64265763     0.11100
H2770       H  0.67659328  0.72515966  0.64465778     0.11000
H2771       H  0.71772487  0.68186128  0.61346495     0.11200
H2772       H  0.74462857  0.70893605  0.61161438     0.10000
C2773       C  0.87127040  0.80198147  0.68998308    -0.03800
C2774       C  0.88134201  0.80599805  0.70906147    -0.09600
C2775       C  0.88298182  0.79039337  0.72421126    -0.17200
C2776       C  0.87459653  0.77058191  0.72052166     0.24900
C2777       C  0.86455496  0.76644783  0.70159698    -0.18900
C2778       C  0.86289384  0.78201036  0.68643238    -0.07800
C2779       C  0.87598520  0.75457732  0.73623379    -0.14200
C2780       C  0.87655183  0.74112733  0.74937779    -0.14000
C2781       C  0.87629639  0.72508365  0.76511302     0.24800
C2782       C  0.86585349  0.70630372  0.76134571    -0.19400
C2783       C  0.86465597  0.69110327  0.77691580    -0.07900
C2784       C  0.87385364  0.69448986  0.79655870    -0.03900
C2785       C  0.88463290  0.71327407  0.80008800    -0.09200
C2786       C  0.88584365  0.72845056  0.78445489    -0.16900
H2787       H  0.88789893  0.82120910  0.71231781     0.11300
H2788       H  0.89072756  0.79380471  0.73882772     0.10500
H2789       H  0.85793622  0.75120290  0.69858367     0.10500
H2790       H  0.85497980  0.77841138  0.67195953     0.11000
H2791       H  0.85838461  0.70351457  0.74645311     0.11100
H2792       H  0.85623592  0.67683468  0.77366622     0.11000
H2793       H  0.89193325  0.71634475  0.81499563     0.11200
H2794       H  0.89398011  0.74292279  0.78755529     0.10000
C2795       C  0.80877019  0.87153595  0.69570540    -0.03800
C2796       C  0.78892787  0.87951475  0.69084148    -0.09600
C2797       C  0.77344015  0.88076482  0.70613381    -0.17200
C2798       C  0.77756112  0.87415254  0.72650573     0.24900
C2799       C  0.79731971  0.86641780  0.73156101    -0.18900
C2800       C  0.81282206  0.86509118  0.71627847    -0.07800
C2801       C  0.76137129  0.87483063  0.74206615    -0.14200
C2802       C  0.74762180  0.87487669  0.75490361    -0.14000
C2803       C  0.73103138  0.87422673  0.77003505     0.24800
C2804       C  0.73401439  0.88245959  0.79002607    -0.19400
C2805       C  0.71809082  0.88122533  0.80488138    -0.07900
C2806       C  0.69895176  0.87169398  0.79992551    -0.03900
C2807       C  0.69604326  0.86365946  0.77971697    -0.09200
C2808       C  0.71197248  0.86493228  0.76489884    -0.16900
H2809       H  0.78526700  0.88452967  0.67515081     0.11300
H2810       H  0.75818928  0.88672163  0.70201708     0.10500
H2811       H  0.80068737  0.86122664  0.74726947     0.10500
H2812       H  0.82792188  0.85888262  0.72053967     0.11000
H2813       H  0.74871028  0.88967011  0.79419187     0.11100
H2814       H  0.72085154  0.88752861  0.82029634     0.11000
H2815       H  0.68152050  0.85621345  0.77539272     0.11200
H2816       H  0.70948424  0.85849202  0.74948412     0.10000
loop_ 
_geom_bond_atom_site_label_1 
_geom_bond_atom_site_label_2 
_geom_bond_distance 
_geom_bond_site_symmetry_2 
_ccdc_geom_bond_type 
O1          Cr19   1.977       .  S
O1            C9   1.261       .  A
O2          Cr19   2.010       .  S
O2            C3   1.267       .  A
C3            O4   1.261       .  A
C3         C2718   1.483       .  S
O4          Cr20   1.977       .  S
O5          Cr20   2.007       .  S
O5            C6   1.267       .  A
C6            O7   1.262       .  A
C6         C2740   1.481       .  S
O7          Cr21   1.978       .  S
O8          Cr21   2.014       .  S
O8            C9   1.268       .  A
C9         C2685   1.484       .  S
O10         Cr19   2.009       .  S
O10          C18   1.266       .  A
O11         Cr19   1.975       .  S
O11          C12   1.260       .  A
C12          O13   1.267       .  A
C12        C2773   1.483       .  S
O13         Cr20   2.012       .  S
O14         Cr20   1.977       .  S
O14          C15   1.260       .  A
C15          O16   1.266       .  A
C15        C2795   1.483       .  S
O16         Cr21   2.010       .  S
O17         Cr21   1.974       .  S
O17          C18   1.260       .  A
C18        C2751   1.481       .  S
Cr19         O22   1.769       .  S
Cr20         O22   1.770       .  S
Cr21         O22   1.771       .  S
O23         Cr41   1.984       .  S
O23          C31   1.262       .  A
O24         Cr41   2.010       .  S
O24          C25   1.268       .  A
C25          O26   1.260       .  A
C25        C2630   1.481       .  S
O26         Cr42   1.973       .  S
O27         Cr42   2.015       .  S
O27          C28   1.269       .  A
C28          O29   1.262       .  A
C28        C2586   1.485       .  S
O29         Cr43   1.977       .  S
O30         Cr43   2.006       .  S
O30          C31   1.266       .  A
C31        C2597   1.483       .  S
O32         Cr41   2.012       .  S
O32          C40   1.267       .  A
O33         Cr41   1.977       .  S
O33          C34   1.260       .  A
C34          O35   1.266       .  A
C34        C2663   1.483       .  S
O35         Cr42   2.010       .  S
O36         Cr42   1.973       .  S
O36          C37   1.258       .  A
C37          O38   1.265       .  A
C37        C2641   1.480       .  S
O38         Cr43   2.008       .  S
O39         Cr43   1.976       .  S
O39          C40   1.261       .  A
C40        C2806   1.482       .  S
Cr41         O44   1.769       .  S
Cr42         O44   1.769       .  S
Cr43         O44   1.769       .  S
O45         Cr63   2.013       .  S
O45          C53   1.269       .  A
O46         Cr63   1.976       .  S
O46          C47   1.260       .  A
C47          O48   1.267       .  A
C47        C2509   1.482       .  S
O48         Cr64   2.008       .  S
O49         Cr64   1.974       .  S
O49          C50   1.260       .  A
C50          O51   1.268       .  A
C50        C2498   1.483       .  S
O51         Cr65   2.014       .  S
O52         Cr65   1.977       .  S
O52          C53   1.262       .  A
C53        C2531   1.484       .  S
O54         Cr63   1.975       .  S
O54          C62   1.260       .  A
O55         Cr63   2.016       .  S
O55          C56   1.268       .  A
C56          O57   1.259       .  A
C56        C2784   1.484       .  S
O57         Cr64   1.973       .  S
O58         Cr64   2.008       .  S
O58          C59   1.266       .  A
C59          O60   1.260       .  A
C59        C2553   1.482       .  S
O60         Cr65   1.978       .  S
O61         Cr65   2.010       .  S
O61          C62   1.266       .  A
C62        C2674   1.482       .  S
Cr63         O66   1.770       .  S
Cr64         O66   1.770       .  S
Cr65         O66   1.771       .  S
O67         Cr85   2.012       .  S
O67          C75   1.267       .  A
O68         Cr85   1.977       .  S
O68          C69   1.262       .  A
C69          O70   1.268       .  A
C69        C2476   1.483       .  S
O70         Cr86   2.012       .  S
O71         Cr86   1.974       .  S
O71          C72   1.261       .  A
C72          O73   1.269       .  A
C72        C2421   1.484       .  S
O73         Cr87   2.016       .  S
O74         Cr87   1.977       .  S
O74          C75   1.261       .  A
C75        C2443   1.484       .  S
O76         Cr85   1.975       .  S
O76          C84   1.260       .  A
O77         Cr85   2.010       .  S
O77          C78   1.266       .  A
C78          O79   1.260       .  A
C78        C2762   1.482       .  S
O79         Cr86   1.977       .  S
O80         Cr86   2.012       .  S
O80          C81   1.266       .  A
C81          O82   1.258       .  A
C81        C2652   1.480       .  S
O82         Cr87   1.972       .  S
O83         Cr87   2.012       .  S
O83          C84   1.267       .  A
C84        C2564   1.483       .  S
Cr85         O88   1.769       .  S
Cr86         O88   1.771       .  S
Cr87         O88   1.769       .  S
O89        Cr107   1.976       .  S
O89          C97   1.261       .  A
O90        Cr107   2.012       .  S
O90          C91   1.267       .  A
C91          O92   1.261       .  A
C91        C2311   1.483       .  S
O92        Cr108   1.978       .  S
O93        Cr108   2.006       .  S
O93          C94   1.267       .  A
C94          O95   1.261       .  A
C94        C2729   1.481       .  S
O95        Cr109   1.977       .  S
O96        Cr109   2.016       .  S
O96          C97   1.269       .  A
C97        C2333   1.483       .  S
O98        Cr107   2.010       .  S
O98         C106   1.266       .  A
O99        Cr107   1.975       .  S
O99         C100   1.260       .  A
C100        O101   1.266       .  A
C100       C2355   1.481       .  S
O101       Cr108   2.010       .  S
O102       Cr108   1.972       .  S
O102        C103   1.259       .  A
C103        O104   1.268       .  A
C103       C2377   1.483       .  S
O104       Cr109   2.016       .  S
O105       Cr109   1.976       .  S
O105        C106   1.260       .  A
C106       C2399   1.481       .  S
Cr107       O110   1.769       .  S
Cr108       O110   1.768       .  S
Cr109       O110   1.770       .  S
O111       Cr129   1.980       .  S
O111        C119   1.262       .  A
O112       Cr129   2.010       .  S
O112        C113   1.268       .  A
C113        O114   1.261       .  A
C113       C2223   1.484       .  S
O114       Cr130   1.979       .  S
O115       Cr130   2.010       .  S
O115        C116   1.268       .  A
C116        O117   1.260       .  A
C116       C2245   1.481       .  S
O117       Cr131   1.973       .  S
O118       Cr131   2.011       .  S
O118        C119   1.268       .  A
C119       C2487   1.485       .  S
O120       Cr129   2.009       .  S
O120        C128   1.266       .  A
O121       Cr129   1.976       .  S
O121        C122   1.260       .  A
C122        O123   1.266       .  A
C122       C2410   1.481       .  S
O123       Cr130   2.008       .  S
O124       Cr130   1.974       .  S
O124        C125   1.259       .  A
C125        O126   1.266       .  A
C125       C2289   1.482       .  S
O126       Cr131   2.012       .  S
O127       Cr131   1.971       .  S
O127        C128   1.259       .  A
C128       C2267   1.480       .  S
Cr129       O132   1.770       .  S
Cr130       O132   1.770       .  S
Cr131       O132   1.770       .  S
O133       Cr151   2.014       .  S
O133        C141   1.268       .  A
O134       Cr151   1.975       .  S
O134        C135   1.261       .  A
C135        O136   1.268       .  A
C135       C2157   1.484       .  S
O136       Cr152   2.014       .  S
O137       Cr152   1.971       .  S
O137        C138   1.260       .  A
C138        O139   1.268       .  A
C138       C2190   1.481       .  S
O139       Cr153   2.014       .  S
O140       Cr153   1.974       .  S
O140        C141   1.261       .  A
C141       C2608   1.483       .  S
O142       Cr151   1.975       .  S
O142        C150   1.260       .  A
O143       Cr151   2.010       .  S
O143        C144   1.267       .  A
C144        O145   1.258       .  A
C144       C2212   1.479       .  S
O145       Cr152   1.969       .  S
O146       Cr152   2.011       .  S
O146        C147   1.267       .  A
C147        O148   1.260       .  A
C147       C2300   1.482       .  S
O148       Cr153   1.974       .  S
O149       Cr153   2.014       .  S
O149        C150   1.267       .  A
C150       C2388   1.484       .  S
Cr151       O154   1.769       .  S
Cr152       O154   1.771       .  S
Cr153       O154   1.770       .  S
O155       Cr173   1.976       .  S
O155        C163   1.262       .  A
O156       Cr173   2.009       .  S
O156        C157   1.267       .  A
C157        O158   1.261       .  A
C157       C2454   1.483       .  S
O158       Cr174   1.980       .  S
O159       Cr174   2.008       .  S
O159        C160   1.267       .  A
C160        O161   1.261       .  A
C160       C2113   1.483       .  S
O161       Cr175   1.978       .  S
O162       Cr175   2.015       .  S
O162        C163   1.269       .  A
C163       C2135   1.485       .  S
O164       Cr173   2.008       .  S
O164        C172   1.265       .  A
O165       Cr173   1.975       .  S
O165        C166   1.260       .  A
C166        O167   1.267       .  A
C166       C2278   1.481       .  S
O167       Cr174   2.011       .  S
O168       Cr174   1.971       .  S
O168        C169   1.259       .  A
C169        O170   1.267       .  A
C169       C2201   1.480       .  S
O170       Cr175   2.011       .  S
O171       Cr175   1.976       .  S
O171        C172   1.259       .  A
C172       C2366   1.482       .  S
Cr173       O176   1.771       .  S
Cr174       O176   1.771       .  S
Cr175       O176   1.771       .  S
O177       Cr195   1.976       .  S
O177        C185   1.262       .  A
O178       Cr195   2.012       .  S
O178        C179   1.267       .  A
C179        O180   1.261       .  A
C179       C2707   1.483       .  S
O180       Cr196   1.977       .  S
O181       Cr196   2.011       .  S
O181        C182   1.267       .  A
C182        O183   1.261       .  A
C182       C2003   1.484       .  S
O183       Cr197   1.977       .  S
O184       Cr197   2.013       .  S
O184        C185   1.269       .  A
C185       C2025   1.483       .  S
O186       Cr195   2.010       .  S
O186        C194   1.266       .  A
O187       Cr195   1.974       .  S
O187        C188   1.260       .  A
C188        O189   1.267       .  A
C188       C2069   1.480       .  S
O189       Cr196   2.010       .  S
O190       Cr196   1.973       .  S
O190        C191   1.259       .  A
C191        O192   1.267       .  A
C191       C2058   1.483       .  S
O192       Cr197   2.015       .  S
O193       Cr197   1.979       .  S
O193        C194   1.260       .  A
C194       C2091   1.484       .  S
Cr195       O198   1.771       .  S
Cr196       O198   1.769       .  S
Cr197       O198   1.770       .  S
O199       Cr217   1.977       .  S
O199        C207   1.261       .  A
O200       Cr217   2.007       .  S
O200        C201   1.267       .  A
C201        O202   1.262       .  A
C201       C1926   1.483       .  S
O202       Cr218   1.981       .  S
O203       Cr218   2.010       .  S
O203        C204   1.267       .  A
C204        O205   1.262       .  A
C204       C2575   1.484       .  S
O205       Cr219   1.979       .  S
O206       Cr219   2.010       .  S
O206        C207   1.268       .  A
C207       C1937   1.483       .  S
O208       Cr217   2.008       .  S
O208        C216   1.265       .  A
O209       Cr217   1.979       .  S
O209        C210   1.261       .  A
C210        O211   1.267       .  A
C210       C2102   1.484       .  S
O211       Cr218   2.011       .  S
O212       Cr218   1.978       .  S
O212        C213   1.260       .  A
C213        O214   1.266       .  A
C213       C1959   1.483       .  S
O214       Cr219   2.007       .  S
O215       Cr219   1.976       .  S
O215        C216   1.259       .  A
C216       C1981   1.480       .  S
Cr217       O220   1.772       .  S
Cr218       O220   1.771       .  S
Cr219       O220   1.771       .  S
O221       Cr239   2.010       .  S
O221        C229   1.267       .  A
O222       Cr239   1.976       .  S
O222        C223   1.261       .  A
C223        O224   1.268       .  A
C223       C2520   1.482       .  S
O224       Cr240   2.011       .  S
O225       Cr240   1.973       .  S
O225        C226   1.261       .  A
C226        O227   1.269       .  A
C226       C1871   1.482       .  S
O227       Cr241   2.013       .  S
O228       Cr241   1.977       .  S
O228        C229   1.261       .  A
C229       C1849   1.483       .  S
O230       Cr239   1.975       .  S
O230        C238   1.260       .  A
O231       Cr239   2.013       .  S
O231        C232   1.267       .  A
C232        O233   1.259       .  A
C232       C2080   1.479       .  S
O233       Cr240   1.971       .  S
O234       Cr240   2.009       .  S
O234        C235   1.265       .  A
C235        O236   1.259       .  A
C235       C1992   1.481       .  S
O236       Cr241   1.974       .  S
O237       Cr241   2.009       .  S
O237        C238   1.267       .  A
C238       C1893   1.481       .  S
Cr239       O242   1.769       .  S
Cr240       O242   1.770       .  S
Cr241       O242   1.768       .  S
O243       Cr261   2.016       .  S
O243        C251   1.269       .  A
O244       Cr261   1.979       .  S
O244        C245   1.262       .  A
C245        O246   1.267       .  A
C245       C1827   1.483       .  S
O246       Cr262   2.007       .  S
O247       Cr262   1.976       .  S
O247        C248   1.260       .  A
C248        O249   1.267       .  A
C248       C1805   1.482       .  S
O249       Cr263   2.010       .  S
O250       Cr263   1.972       .  S
O250        C251   1.261       .  A
C251       C2432   1.483       .  S
O252       Cr261   1.979       .  S
O252        C260   1.260       .  A
O253       Cr261   2.010       .  S
O253        C254   1.267       .  A
C254        O255   1.260       .  A
C254       C2047   1.482       .  S
O255       Cr262   1.976       .  S
O256       Cr262   2.011       .  S
O256        C257   1.267       .  A
C257        O258   1.260       .  A
C257       C1904   1.481       .  S
O258       Cr263   1.974       .  S
O259       Cr263   2.010       .  S
O259        C260   1.265       .  A
C260       C1970   1.482       .  S
Cr261       O264   1.770       .  S
Cr262       O264   1.771       .  S
Cr263       O264   1.770       .  S
O265       Cr283   1.976       .  S
O265        C273   1.261       .  A
O266       Cr283   2.012       .  S
O266        C267   1.268       .  A
C267        O268   1.261       .  A
C267       C1717   1.483       .  S
O268       Cr284   1.976       .  S
O269       Cr284   2.012       .  S
O269        C270   1.268       .  A
C270        O271   1.260       .  A
C270       C2344   1.483       .  S
O271       Cr285   1.975       .  S
O272       Cr285   2.015       .  S
O272        C273   1.269       .  A
C273       C2036   1.485       .  S
O274       Cr283   2.009       .  S
O274        C282   1.266       .  A
O275       Cr283   1.976       .  S
O275        C276   1.260       .  A
C276        O277   1.267       .  A
C276       C1783   1.482       .  S
O277       Cr284   2.011       .  S
O278       Cr284   1.972       .  S
O278        C279   1.259       .  A
C279        O280   1.267       .  A
C279       C1750   1.482       .  S
O280       Cr285   2.014       .  S
O281       Cr285   1.976       .  S
O281        C282   1.260       .  A
C282       C1761   1.481       .  S
Cr283       O286   1.769       .  S
Cr284       O286   1.770       .  S
Cr285       O286   1.770       .  S
O287       Cr305   2.010       .  S
O287        C295   1.268       .  A
O288       Cr305   1.975       .  S
O288        C289   1.261       .  A
C289        O290   1.268       .  A
C289       C1651   1.483       .  S
O290       Cr306   2.013       .  S
O291       Cr306   1.978       .  S
O291        C292   1.261       .  A
C292        O293   1.268       .  A
C292       C2124   1.483       .  S
O293       Cr307   2.011       .  S
O294       Cr307   1.975       .  S
O294        C295   1.261       .  A
C295       C1816   1.481       .  S
O296       Cr305   1.974       .  S
O296        C304   1.259       .  A
O297       Cr305   2.011       .  S
O297        C298   1.267       .  A
C298        O299   1.260       .  A
C298       C1794   1.482       .  S
O299       Cr306   1.975       .  S
O300       Cr306   2.010       .  S
O300        C301   1.266       .  A
C301        O302   1.260       .  A
C301       C1673   1.480       .  S
O302       Cr307   1.974       .  S
O303       Cr307   2.009       .  S
O303        C304   1.266       .  A
C304       C1695   1.480       .  S
Cr305       O308   1.768       .  S
Cr306       O308   1.769       .  S
Cr307       O308   1.769       .  S
O309       Cr327   1.978       .  S
O309        C317   1.262       .  A
O310       Cr327   2.012       .  S
O310        C311   1.268       .  A
C311        O312   1.261       .  A
C311       C1915   1.484       .  S
O312       Cr328   1.976       .  S
O313       Cr328   2.009       .  S
O313        C314   1.267       .  A
C314        O315   1.261       .  A
C314       C1618   1.483       .  S
O315       Cr329   1.978       .  S
O316       Cr329   2.010       .  S
O316        C317   1.268       .  A
C317       C2168   1.484       .  S
O318       Cr327   2.009       .  S
O318        C326   1.266       .  A
O319       Cr327   1.977       .  S
O319        C320   1.260       .  A
C320        O321   1.266       .  A
C320       C1772   1.482       .  S
O321       Cr328   2.009       .  S
O322       Cr328   1.971       .  S
O322        C323   1.259       .  A
C323        O324   1.267       .  A
C323       C1629   1.480       .  S
O324       Cr329   2.011       .  S
O325       Cr329   1.976       .  S
O325        C326   1.260       .  A
C326       C1684   1.481       .  S
Cr327       O330   1.770       .  S
Cr328       O330   1.771       .  S
Cr329       O330   1.771       .  S
O331       Cr349   2.011       .  S
O331        C339   1.267       .  A
O332       Cr349   1.978       .  S
O332        C333   1.262       .  A
C333        O334   1.268       .  A
C333       C1860   1.483       .  S
O334       Cr350   2.010       .  S
O335       Cr350   1.976       .  S
O335        C336   1.262       .  A
C336        O337   1.268       .  A
C336       C1596   1.483       .  S
O337       Cr351   2.012       .  S
O338       Cr351   1.975       .  S
O338        C339   1.260       .  A
C339       C2234   1.483       .  S
O340       Cr349   1.972       .  S
O340        C348   1.259       .  A
O341       Cr349   2.007       .  S
O341        C342   1.266       .  A
C342        O343   1.260       .  A
C342       C1706   1.480       .  S
O343       Cr350   1.978       .  S
O344       Cr350   2.008       .  S
O344        C345   1.265       .  A
C345        O346   1.259       .  A
C345       C1640   1.480       .  S
O346       Cr351   1.973       .  S
O347       Cr351   2.014       .  S
O347        C348   1.268       .  A
C348       C1739   1.482       .  S
Cr349       O352   1.770       .  S
Cr350       O352   1.770       .  S
Cr351       O352   1.769       .  S
O353       Cr371   1.977       .  S
O353        C361   1.261       .  A
O354       Cr371   2.013       .  S
O354        C355   1.267       .  A
C355        O356   1.260       .  A
C355       C1497   1.484       .  S
O356       Cr372   1.976       .  S
O357       Cr372   2.014       .  S
O357        C358   1.269       .  A
C358        O359   1.261       .  A
C358       C1486   1.483       .  S
O359       Cr373   1.975       .  S
O360       Cr373   2.011       .  S
O360        C361   1.268       .  A
C361       C2696   1.483       .  S
O362       Cr371   2.011       .  S
O362        C370   1.267       .  A
O363       Cr371   1.973       .  S
O363        C364   1.260       .  A
C364        O365   1.268       .  A
C364       C1541   1.482       .  S
O365       Cr372   2.012       .  S
O366       Cr372   1.974       .  S
O366        C367   1.259       .  A
C367        O368   1.265       .  A
C367       C1563   1.481       .  S
O368       Cr373   2.008       .  S
O369       Cr373   1.976       .  S
O369        C370   1.260       .  A
C370       C1519   1.482       .  S
Cr371       O374   1.771       .  S
Cr372       O374   1.770       .  S
Cr373       O374   1.771       .  S
O375       Cr393   2.012       .  S
O375        C383   1.268       .  A
O376       Cr393   1.979       .  S
O376        C377   1.261       .  A
C377        O378   1.267       .  A
C377       C1398   1.483       .  S
O378       Cr394   2.010       .  S
O379       Cr394   1.981       .  S
O379        C380   1.262       .  A
C380        O381   1.267       .  A
C380       C1409   1.484       .  S
O381       Cr395   2.010       .  S
O382       Cr395   1.975       .  S
O382        C383   1.261       .  A
C383       C2542   1.483       .  S
O384       Cr393   1.979       .  S
O384        C392   1.260       .  A
O385       Cr393   2.012       .  S
O385        C386   1.267       .  A
C386        O387   1.260       .  A
C386       C1442   1.482       .  S
O387       Cr394   1.975       .  S
O388       Cr394   2.008       .  S
O388        C389   1.266       .  A
C389        O390   1.260       .  A
C389       C1574   1.480       .  S
O390       Cr395   1.974       .  S
O391       Cr395   2.008       .  S
O391        C392   1.266       .  A
C392       C1453   1.483       .  S
Cr393       O396   1.770       .  S
Cr394       O396   1.769       .  S
Cr395       O396   1.769       .  S
O397       Cr415   2.012       .  S
O397        C405   1.268       .  A
O398       Cr415   1.975       .  S
O398        C399   1.261       .  A
C399        O400   1.268       .  A
C399       C2619   1.480       .  S
O400       Cr416   2.011       .  S
O401       Cr416   1.981       .  S
O401        C402   1.262       .  A
C402        O403   1.267       .  A
C402       C1354   1.484       .  S
O403       Cr417   2.009       .  S
O404       Cr417   1.974       .  S
O404        C405   1.260       .  A
C405       C1321   1.482       .  S
O406       Cr415   1.977       .  S
O406        C414   1.260       .  A
O407       Cr415   2.010       .  S
O407        C408   1.267       .  A
C408        O409   1.261       .  A
C408       C1464   1.483       .  S
O409       Cr416   1.978       .  S
O410       Cr416   2.013       .  S
O410        C411   1.267       .  A
C411        O412   1.259       .  A
C411       C1552   1.480       .  S
O412       Cr417   1.971       .  S
O413       Cr417   2.009       .  S
O413        C414   1.266       .  A
C414       C1365   1.482       .  S
Cr415       O418   1.769       .  S
Cr416       O418   1.770       .  S
Cr417       O418   1.767       .  S
O419       Cr437   2.014       .  S
O419        C427   1.269       .  A
O420       Cr437   1.978       .  S
O420        C421   1.261       .  A
C421        O422   1.267       .  A
C421       C2465   1.484       .  S
O422       Cr438   2.011       .  S
O423       Cr438   1.975       .  S
O423        C424   1.261       .  A
C424        O425   1.268       .  A
C424       C1299   1.483       .  S
O425       Cr439   2.013       .  S
O426       Cr439   1.976       .  S
O426        C427   1.262       .  A
C427       C1277   1.484       .  S
O428       Cr437   1.977       .  S
O428        C436   1.259       .  A
O429       Cr437   2.014       .  S
O429        C430   1.267       .  A
C430        O431   1.259       .  A
C430       C1530   1.482       .  S
O431       Cr438   1.971       .  S
O432       Cr438   2.011       .  S
O432        C433   1.266       .  A
C433        O434   1.260       .  A
C433       C1431   1.482       .  S
O434       Cr439   1.977       .  S
O435       Cr439   2.009       .  S
O435        C436   1.266       .  A
C436       C1376   1.483       .  S
Cr437       O440   1.771       .  S
Cr438       O440   1.771       .  S
Cr439       O440   1.770       .  S
O441       Cr459   1.973       .  S
O441        C449   1.260       .  A
O442       Cr459   2.010       .  S
O442        C443   1.267       .  A
C443        O444   1.260       .  A
C443       C1189   1.481       .  S
O444       Cr460   1.975       .  S
O445       Cr460   2.015       .  S
O445        C446   1.269       .  A
C446        O447   1.260       .  A
C446       C1343   1.483       .  S
O447       Cr461   1.973       .  S
O448       Cr461   2.012       .  S
O448        C449   1.268       .  A
C449       C2179   1.481       .  S
O450       Cr459   2.013       .  S
O450        C458   1.267       .  A
O451       Cr459   1.972       .  S
O451        C452   1.260       .  A
C452        O453   1.267       .  A
C452       C1266   1.481       .  S
O453       Cr460   2.012       .  S
O454       Cr460   1.975       .  S
O454        C455   1.259       .  A
C455        O456   1.266       .  A
C455       C1233   1.483       .  S
O456       Cr461   2.012       .  S
O457       Cr461   1.974       .  S
O457        C458   1.260       .  A
C458       C1211   1.483       .  S
Cr459       O462   1.771       .  S
Cr460       O462   1.771       .  S
Cr461       O462   1.770       .  S
O463       Cr481   2.011       .  S
O463        C471   1.268       .  A
O464       Cr481   1.975       .  S
O464        C465   1.260       .  A
C465        O466   1.268       .  A
C465       C1123   1.482       .  S
O466       Cr482   2.012       .  S
O467       Cr482   1.977       .  S
O467        C468   1.261       .  A
C468        O469   1.268       .  A
C468       C1310   1.483       .  S
O469       Cr483   2.011       .  S
O470       Cr483   1.979       .  S
O470        C471   1.261       .  A
C471       C2146   1.484       .  S
O472       Cr481   1.974       .  S
O472        C480   1.259       .  A
O473       Cr481   2.012       .  S
O473        C474   1.267       .  A
C474        O475   1.260       .  A
C474       C1255   1.481       .  S
O475       Cr482   1.975       .  S
O476       Cr482   2.011       .  S
O476        C477   1.266       .  A
C477        O478   1.260       .  A
C477       C1178   1.482       .  S
O478       Cr483   1.976       .  S
O479       Cr483   2.009       .  S
O479        C480   1.266       .  A
C480       C1156   1.480       .  S
Cr481       O484   1.769       .  S
Cr482       O484   1.769       .  S
Cr483       O484   1.768       .  S
O485       Cr503   2.012       .  S
O485        C493   1.268       .  A
O486       Cr503   1.978       .  S
O486        C487   1.262       .  A
C487        O488   1.269       .  A
C487       C1079   1.485       .  S
O488       Cr504   2.013       .  S
O489       Cr504   1.980       .  S
O489        C490   1.262       .  A
C490        O491   1.267       .  A
C490       C1508   1.483       .  S
O491       Cr505   2.008       .  S
O492       Cr505   1.976       .  S
O492        C493   1.261       .  A
C493       C2322   1.483       .  S
O494       Cr503   1.975       .  S
O494        C502   1.259       .  A
O495       Cr503   2.008       .  S
O495        C496   1.266       .  A
C496        O497   1.259       .  A
C496       C1101   1.480       .  S
O497       Cr504   1.974       .  S
O498       Cr504   2.013       .  S
O498        C499   1.267       .  A
C499        O500   1.260       .  A
C499       C1244   1.484       .  S
O500       Cr505   1.975       .  S
O501       Cr505   2.009       .  S
O501        C502   1.266       .  A
C502       C1145   1.481       .  S
Cr503       O506   1.772       .  S
Cr504       O506   1.771       .  S
Cr505       O506   1.770       .  S
O507       Cr525   2.009       .  S
O507        C515   1.267       .  A
O508       Cr525   1.976       .  S
O508        C509   1.262       .  A
C509        O510   1.268       .  A
C509       C1387   1.482       .  S
O510       Cr526   2.009       .  S
O511       Cr526   1.974       .  S
O511        C512   1.260       .  A
C512        O513   1.267       .  A
C512       C2256   1.481       .  S
O513       Cr527   2.009       .  S
O514       Cr527   1.980       .  S
O514        C515   1.261       .  A
C515       C1057   1.484       .  S
O516       Cr525   1.973       .  S
O516        C524   1.260       .  A
O517       Cr525   2.007       .  S
O517        C518   1.265       .  A
C518        O519   1.260       .  A
C518       C1167   1.481       .  S
O519       Cr526   1.977       .  S
O520       Cr526   2.009       .  S
O520        C521   1.266       .  A
C521        O522   1.260       .  A
C521       C1222   1.483       .  S
O522       Cr527   1.977       .  S
O523       Cr527   2.011       .  S
O523        C524   1.266       .  A
C524       C1112   1.481       .  S
Cr525       O528   1.770       .  S
Cr526       O528   1.771       .  S
Cr527       O528   1.771       .  S
O529       Cr547   2.007       .  S
O529        C537   1.266       .  A
O530       Cr547   1.978       .  S
O530        C531   1.262       .  A
C531        O532   1.268       .  A
C531       C1728   1.483       .  S
O532       Cr548   2.011       .  S
O533       Cr548   1.974       .  S
O533        C534   1.261       .  A
C534        O535   1.267       .  A
C534        C969   1.481       .  S
O535       Cr549   2.008       .  S
O536       Cr549   1.981       .  S
O536        C537   1.261       .  A
C537       C1090   1.484       .  S
O538       Cr547   1.974       .  S
O538        C546   1.260       .  A
O539       Cr547   2.007       .  S
O539        C540   1.265       .  A
C540        O541   1.259       .  A
C540        C991   1.481       .  S
O541       Cr548   1.975       .  S
O542       Cr548   2.007       .  S
O542        C543   1.265       .  A
C543        O544   1.260       .  A
C543       C1024   1.481       .  S
O544       Cr549   1.976       .  S
O545       Cr549   2.008       .  S
O545        C546   1.267       .  A
C546       C1035   1.480       .  S
Cr547       O550   1.772       .  S
Cr548       O550   1.771       .  S
Cr549       O550   1.772       .  S
O551       Cr569   1.974       .  S
O551        C559   1.261       .  A
O552       Cr569   2.010       .  S
O552        C553   1.267       .  A
C553        O554   1.262       .  A
C553       C1585   1.482       .  S
O554       Cr570   1.979       .  S
O555       Cr570   2.013       .  S
O555        C556   1.267       .  A
C556        O557   1.260       .  A
C556        C914   1.482       .  S
O557       Cr571   1.974       .  S
O558       Cr571   2.013       .  S
O558        C559   1.269       .  A
C559       C1068   1.482       .  S
O560       Cr569   2.008       .  S
O560        C568   1.265       .  A
O561       Cr569   1.975       .  S
O561        C562   1.260       .  A
C562        O563   1.267       .  A
C562        C958   1.481       .  S
O563       Cr570   2.010       .  S
O564       Cr570   1.972       .  S
O564        C565   1.260       .  A
C565        O566   1.267       .  A
C565        C936   1.481       .  S
O566       Cr571   2.013       .  S
O567       Cr571   1.973       .  S
O567        C568   1.259       .  A
C568       C1046   1.481       .  S
Cr569       O572   1.770       .  S
Cr570       O572   1.769       .  S
Cr571       O572   1.770       .  S
O573       Cr591   1.977       .  S
O573        C581   1.261       .  A
O574       Cr591   2.010       .  S
O574        C575   1.267       .  A
C575        O576   1.261       .  A
C575       C1200   1.481       .  S
O576       Cr592   1.975       .  S
O577       Cr592   2.013       .  S
O577        C578   1.268       .  A
C578        O579   1.261       .  A
C578       C1607   1.482       .  S
O579       Cr593   1.974       .  S
O580       Cr593   2.008       .  S
O580        C581   1.267       .  A
C581        C859   1.481       .  S
O582       Cr591   2.009       .  S
O582        C590   1.266       .  A
O583       Cr591   1.974       .  S
O583        C584   1.260       .  A
C584        O585   1.267       .  A
C584        C892   1.481       .  S
O585       Cr592   2.012       .  S
O586       Cr592   1.978       .  S
O586        C587   1.260       .  A
C587        O588   1.265       .  A
C587        C947   1.481       .  S
O588       Cr593   2.006       .  S
O589       Cr593   1.975       .  S
O589        C590   1.260       .  A
C590       C1013   1.480       .  S
Cr591       O594   1.768       .  S
Cr592       O594   1.769       .  S
Cr593       O594   1.768       .  S
O595       Cr613   2.009       .  S
O595        C603   1.267       .  A
O596       Cr613   1.978       .  S
O596        C597   1.261       .  A
C597        O598   1.268       .  A
C597       C1662   1.485       .  S
O598       Cr614   2.015       .  S
O599       Cr614   1.971       .  S
O599        C600   1.261       .  A
C600        O601   1.269       .  A
C600        C837   1.481       .  S
O601       Cr615   2.014       .  S
O602       Cr615   1.975       .  S
O602        C603   1.261       .  A
C603       C1134   1.481       .  S
O604       Cr613   1.974       .  S
O604        C612   1.259       .  A
O605       Cr613   2.008       .  S
O605        C606   1.266       .  A
C606        O607   1.259       .  A
C606       C1002   1.480       .  S
O607       Cr614   1.973       .  S
O608       Cr614   2.011       .  S
O608        C609   1.267       .  A
C609        O610   1.259       .  A
C609        C925   1.482       .  S
O610       Cr615   1.974       .  S
O611       Cr615   2.014       .  S
O611        C612   1.267       .  A
C612        C881   1.479       .  S
Cr613       O616   1.767       .  S
Cr614       O616   1.769       .  S
Cr615       O616   1.770       .  S
O617       Cr635   1.978       .  S
O617        C625   1.261       .  A
O618       Cr635   2.010       .  S
O618        C619   1.268       .  A
C619        O620   1.262       .  A
C619       C1420   1.483       .  S
O620       Cr636   1.978       .  S
O621       Cr636   2.006       .  S
O621        C622   1.267       .  A
C622        O623   1.262       .  A
C622        C903   1.482       .  S
O623       Cr637   1.982       .  S
O624       Cr637   2.011       .  S
O624        C625   1.267       .  A
C625       C1882   1.484       .  S
O626       Cr635   2.010       .  S
O626        C634   1.266       .  A
O627       Cr635   1.977       .  S
O627        C628   1.259       .  A
C628        O629   1.265       .  A
C628        C793   1.481       .  S
O629       Cr636   2.007       .  S
O630       Cr636   1.974       .  S
O630        C631   1.260       .  A
C631        O632   1.266       .  A
C631        C826   1.478       .  S
O632       Cr637   2.006       .  S
O633       Cr637   1.978       .  S
O633        C634   1.260       .  A
C634        C771   1.484       .  S
Cr635       O638   1.767       .  S
Cr636       O638   1.770       .  S
Cr637       O638   1.769       .  S
O639       Cr657   1.976       .  S
O639        C647   1.262       .  A
O640       Cr657   2.010       .  S
O640        C641   1.267       .  A
C641        O642   1.262       .  A
C641       C1838   1.482       .  S
O642       Cr658   1.978       .  S
O643       Cr658   2.011       .  S
O643        C644   1.268       .  A
C644        O645   1.261       .  A
C644       C1288   1.485       .  S
O645       Cr659   1.980       .  S
O646       Cr659   2.012       .  S
O646        C647   1.268       .  A
C647        C848   1.482       .  S
O648       Cr657   2.004       .  S
O648        C656   1.265       .  A
O649       Cr657   1.977       .  S
O649        C650   1.260       .  A
C650        O651   1.267       .  A
C650        C749   1.482       .  S
O651       Cr658   2.009       .  S
O652       Cr658   1.976       .  S
O652        C653   1.260       .  A
C653        O654   1.267       .  A
C653        C727   1.483       .  S
O654       Cr659   2.010       .  S
O655       Cr659   1.974       .  S
O655        C656   1.259       .  A
C656        C815   1.478       .  S
Cr657       O660   1.771       .  S
Cr658       O660   1.768       .  S
Cr659       O660   1.769       .  S
O661       Cr679   1.978       .  S
O661        C669   1.261       .  A
O662       Cr679   2.010       .  S
O662        C663   1.268       .  A
C663        O664   1.262       .  A
C663       C2014   1.484       .  S
O664       Cr680   1.980       .  S
O665       Cr680   2.013       .  S
O665        C666   1.268       .  A
C666        O667   1.261       .  A
C666       C1475   1.485       .  S
O667       Cr681   1.978       .  S
O668       Cr681   2.007       .  S
O668        C669   1.267       .  A
C669        C980   1.482       .  S
O670       Cr679   2.011       .  S
O670        C678   1.266       .  A
O671       Cr679   1.977       .  S
O671        C672   1.260       .  A
C672        O673   1.266       .  A
C672        C760   1.482       .  S
O673       Cr680   2.009       .  S
O674       Cr680   1.977       .  S
O674        C675   1.260       .  A
C675        O676   1.266       .  A
C675        C804   1.482       .  S
O676       Cr681   2.008       .  S
O677       Cr681   1.975       .  S
O677        C678   1.260       .  A
C678        C705   1.482       .  S
Cr679       O682   1.770       .  S
Cr680       O682   1.770       .  S
Cr681       O682   1.769       .  S
O683       Cr701   1.980       .  S
O683        C691   1.262       .  A
O684       Cr701   2.005       .  S
O684        C685   1.266       .  A
C685        O686   1.262       .  A
C685       C1948   1.482       .  S
O686       Cr702   1.982       .  S
O687       Cr702   2.006       .  S
O687        C688   1.267       .  A
C688        O689   1.261       .  A
C688       C1332   1.482       .  S
O689       Cr703   1.979       .  S
O690       Cr703   2.008       .  S
O690        C691   1.267       .  A
C691        C870   1.483       .  S
O692       Cr701   2.004       .  S
O692        C700   1.265       .  A
O693       Cr701   1.978       .  S
O693        C694   1.261       .  A
C694        O695   1.266       .  A
C694        C782   1.483       .  S
O695       Cr702   2.010       .  S
O696       Cr702   1.980       .  S
O696        C697   1.261       .  A
C697        O698   1.266       .  A
C697        C738   1.484       .  S
O698       Cr703   2.008       .  S
O699       Cr703   1.978       .  S
O699        C700   1.260       .  A
C700        C716   1.480       .  S
Cr701       O704   1.770       .  S
Cr702       O704   1.771       .  S
Cr703       O704   1.771       .  S
C705        C706   1.408       .  A
C705        C710   1.408       .  A
C706        C707   1.398       .  A
C706        H719   1.083       .  S
C707        C708   1.399       .  A
C707        H720   1.084       .  S
C708        C709   1.399       .  A
C708        C711   1.440       .  S
C709        C710   1.399       .  A
C709        H721   1.083       .  S
C710        H722   1.083       .  S
C711        C712   1.206       .  T
C712        C713   1.439       .  S
C713        C714   1.399       .  A
C713        C718   1.400       .  A
C714        C715   1.398       .  A
C714        H723   1.084       .  S
C715        C716   1.408       .  A
C715        H724   1.083       .  S
C716        C717   1.407       .  A
C717        C718   1.398       .  A
C717        H725   1.083       .  S
C718        H726   1.083       .  S
C727        C728   1.407       .  A
C727        C732   1.408       .  A
C728        C729   1.399       .  A
C728        H741   1.083       .  S
C729        C730   1.400       .  A
C729        H742   1.084       .  S
C730        C731   1.400       .  A
C730        C733   1.443       .  S
C731        C732   1.400       .  A
C731        H743   1.083       .  S
C732        H744   1.083       .  S
C733        C734   1.208       .  T
C734        C735   1.443       .  S
C735        C736   1.400       .  A
C735        C740   1.400       .  A
C736        C737   1.399       .  A
C736        H745   1.084       .  S
C737        C738   1.408       .  A
C737        H746   1.083       .  S
C738        C739   1.408       .  A
C739        C740   1.400       .  A
C739        H747   1.083       .  S
C740        H748   1.083       .  S
C749        C750   1.408       .  A
C749        C754   1.408       .  A
C750        C751   1.398       .  A
C750        H763   1.083       .  S
C751        C752   1.399       .  A
C751        H764   1.083       .  S
C752        C753   1.400       .  A
C752        C755   1.440       .  S
C753        C754   1.399       .  A
C753        H765   1.084       .  S
C754        H766   1.083       .  S
C755        C756   1.206       .  T
C756        C757   1.440       .  S
C757        C758   1.400       .  A
C757        C762   1.400       .  A
C758        C759   1.399       .  A
C758        H767   1.083       .  S
C759        C760   1.408       .  A
C759        H768   1.083       .  S
C760        C761   1.407       .  A
C761        C762   1.398       .  A
C761        H769   1.083       .  S
C762        H770   1.084       .  S
C771        C772   1.408       .  A
C771        C776   1.408       .  A
C772        C773   1.399       .  A
C772        H785   1.083       .  S
C773        C774   1.400       .  A
C773        H786   1.084       .  S
C774        C775   1.400       .  A
C774        C777   1.442       .  S
C775        C776   1.399       .  A
C775        H787   1.083       .  S
C776        H788   1.083       .  S
C777        C778   1.208       .  T
C778        C779   1.442       .  S
C779        C780   1.400       .  A
C779        C784   1.400       .  A
C780        C781   1.399       .  A
C780        H789   1.084       .  S
C781        C782   1.407       .  A
C781        H790   1.083       .  S
C782        C783   1.408       .  A
C783        C784   1.400       .  A
C783        H791   1.083       .  S
C784        H792   1.084       .  S
C793        C794   1.408       .  A
C793        C798   1.408       .  A
C794        C795   1.398       .  A
C794        H807   1.083       .  S
C795        C796   1.399       .  A
C795        H808   1.084       .  S
C796        C797   1.400       .  A
C796        C799   1.440       .  S
C797        C798   1.399       .  A
C797        H809   1.083       .  S
C798        H810   1.083       .  S
C799        C800   1.206       .  T
C800        C801   1.440       .  S
C801        C802   1.399       .  A
C801        C806   1.400       .  A
C802        C803   1.398       .  A
C802        H811   1.084       .  S
C803        C804   1.408       .  A
C803        H812   1.083       .  S
C804        C805   1.408       .  A
C805        C806   1.399       .  A
C805        H813   1.083       .  S
C806        H814   1.083       .  S
C815        C816   1.407       .  A
C815        C820   1.407       .  A
C816        C817   1.396       .  A
C816        H829   1.083       .  S
C817        C818   1.398       .  A
C817        H830   1.084       .  S
C818        C819   1.399       .  A
C818        C821   1.436       .  S
C819        C820   1.398       .  A
C819        H831   1.083       .  S
C820        H832   1.083       .  S
C821        C822   1.204       .  T
C822        C823   1.436       .  S
C823        C824   1.398       .  A
C823        C828   1.399       .  A
C824        C825   1.397       .  A
C824        H833   1.084       .  S
C825        C826   1.407       .  A
C825        H834   1.083       .  S
C826        C827   1.407       .  A
C827        C828   1.397       .  A
C827        H835   1.083       .  S
C828        H836   1.083       .  S
C837        C838   1.407       .  A
C837        C842   1.408       .  A
C838        C839   1.399       .  A
C838        H851   1.083       .  S
C839        C840   1.400       .  A
C839        H852   1.084       .  S
C840        C841   1.399       .  A
C840        C843   1.440       .  S
C841        C842   1.398       .  A
C841        H853   1.083       .  S
C842        H854   1.083       .  S
C843        C844   1.206       .  T
C844        C845   1.440       .  S
C845        C846   1.400       .  A
C845        C850   1.399       .  A
C846        C847   1.400       .  A
C846        H855   1.084       .  S
C847        C848   1.408       .  A
C847        H856   1.083       .  S
C848        C849   1.407       .  A
C849        C850   1.397       .  A
C849        H857   1.083       .  S
C850        H858   1.083       .  S
C859        C860   1.408       .  A
C859        C864   1.408       .  A
C860        C861   1.397       .  A
C860        H873   1.083       .  S
C861        C862   1.399       .  A
C861        H874   1.084       .  S
C862        C863   1.400       .  A
C862        C865   1.440       .  S
C863        C864   1.400       .  A
C863        H875   1.083       .  S
C864        H876   1.083       .  S
C865        C866   1.206   1_545  T
C866        C867   1.441       .  S
C867        C868   1.399       .  A
C867        C872   1.400       .  A
C868        C869   1.398       .  A
C868        H877   1.084       .  S
C869        C870   1.408       .  A
C869        H878   1.083       .  S
C870        C871   1.407       .  A
C871        C872   1.400       .  A
C871        H879   1.083       .  S
C872        H880   1.084       .  S
C881        C882   1.407       .  A
C881        C886   1.407       .  A
C882        C883   1.399       .  A
C882        H895   1.083       .  S
C883        C884   1.400       .  A
C883        H896   1.084       .  S
C884        C885   1.399       .  A
C884        C887   1.440       .  S
C885        C886   1.398       .  A
C885        H897   1.084       .  S
C886        H898   1.083       .  S
C887        C888   1.206       .  T
C888        C889   1.440       .  S
C889        C890   1.400       .  A
C889        C894   1.400       .  A
C890        C891   1.398       .  A
C890        H899   1.084       .  S
C891        C892   1.408       .  A
C891        H900   1.083       .  S
C892        C893   1.407       .  A
C893        C894   1.399       .  A
C893        H901   1.083       .  S
C894        H902   1.083       .  S
C903        C904   1.408       .  A
C903        C908   1.407       .  A
C904        C905   1.397       .  A
C904        H917   1.083       .  S
C905        C906   1.399       .  A
C905        H918   1.084       .  S
C906        C907   1.401       .  A
C906        C909   1.440       .  S
C907        C908   1.400       .  A
C907        H919   1.083       .  S
C908        H920   1.083       .  S
C909        C910   1.206       .  T
C910        C911   1.440       .  S
C911        C912   1.400       .  A
C911        C916   1.400       .  A
C912        C913   1.399       .  A
C912        H921   1.084       .  S
C913        C914   1.408       .  A
C913        H922   1.083       .  S
C914        C915   1.407       .  A
C915        C916   1.398       .  A
C915        H923   1.083       .  S
C916        H924   1.084       .  S
C925        C926   1.407       .  A
C925        C930   1.408       .  A
C926        C927   1.399       .  A
C926        H939   1.083       .  S
C927        C928   1.399       .  A
C927        H940   1.084       .  S
C928        C929   1.399       .  A
C928        C931   1.440       .  S
C929        C930   1.398       .  A
C929        H941   1.083       .  S
C930        H942   1.083       .  S
C931        C932   1.206       .  T
C932        C933   1.440       .  S
C933        C934   1.399       .  A
C933        C938   1.400       .  A
C934        C935   1.397       .  A
C934        H943   1.084       .  S
C935        C936   1.408       .  A
C935        H944   1.083       .  S
C936        C937   1.407       .  A
C937        C938   1.399       .  A
C937        H945   1.083       .  S
C938        H946   1.083       .  S
C947        C948   1.407       .  A
C947        C952   1.408       .  A
C948        C949   1.399       .  A
C948        H961   1.083       .  S
C949        C950   1.400       .  A
C949        H962   1.083       .  S
C950        C951   1.399       .  A
C950        C953   1.439       .  S
C951        C952   1.397       .  A
C951        H963   1.084       .  S
C952        H964   1.083       .  S
C953        C954   1.206       .  T
C954        C955   1.439       .  S
C955        C956   1.400       .  A
C955        C960   1.399       .  A
C956        C957   1.399       .  A
C956        H965   1.083       .  S
C957        C958   1.408       .  A
C957        H966   1.083       .  S
C958        C959   1.407       .  A
C959        C960   1.398       .  A
C959        H967   1.083       .  S
C960        H968   1.084       .  S
C969        C970   1.407       .  A
C969        C974   1.407       .  A
C970        C971   1.399       .  A
C970        H983   1.083       .  S
C971        C972   1.399       .  A
C971        H984   1.084       .  S
C972        C973   1.399       .  A
C972        C975   1.439       .  S
C973        C974   1.398       .  A
C973        H985   1.083       .  S
C974        H986   1.083       .  S
C975        C976   1.206   1_545  T
C976        C977   1.439       .  S
C977        C978   1.398       .  A
C977        C982   1.400       .  A
C978        C979   1.397       .  A
C978        H987   1.084       .  S
C979        C980   1.408       .  A
C979        H988   1.083       .  S
C980        C981   1.408       .  A
C981        C982   1.400       .  A
C981        H989   1.083       .  S
C982        H990   1.083       .  S
C991        C992   1.408       .  A
C991        C996   1.407       .  A
C992        C993   1.399       .  A
C992       H1005   1.083       .  S
C993        C994   1.400       .  A
C993       H1006   1.084       .  S
C994        C995   1.399       .  A
C994        C997   1.439       .  S
C995        C996   1.398       .  A
C995       H1007   1.084       .  S
C996       H1008   1.083       .  S
C997        C998   1.205       .  T
C998        C999   1.438       .  S
C999       C1000   1.399       .  A
C999       C1004   1.399       .  A
C1000      C1001   1.398       .  A
C1000      H1009   1.084       .  S
C1001      C1002   1.407       .  A
C1001      H1010   1.083       .  S
C1002      C1003   1.407       .  A
C1003      C1004   1.398       .  A
C1003      H1011   1.083       .  S
C1004      H1012   1.084       .  S
C1013      C1014   1.408       .  A
C1013      C1018   1.407       .  A
C1014      C1015   1.398       .  A
C1014      H1027   1.083       .  S
C1015      C1016   1.399       .  A
C1015      H1028   1.084       .  S
C1016      C1017   1.399       .  A
C1016      C1019   1.439       .  S
C1017      C1018   1.398       .  A
C1017      H1029   1.084       .  S
C1018      H1030   1.083       .  S
C1019      C1020   1.206       .  T
C1020      C1021   1.439       .  S
C1021      C1022   1.399       .  A
C1021      C1026   1.399       .  A
C1022      C1023   1.398       .  A
C1022      H1031   1.083       .  S
C1023      C1024   1.407       .  A
C1023      H1032   1.083       .  S
C1024      C1025   1.408       .  A
C1025      C1026   1.399       .  A
C1025      H1033   1.083       .  S
C1026      H1034   1.084       .  S
C1035      C1036   1.408       .  A
C1035      C1040   1.407       .  A
C1036      C1037   1.398       .  A
C1036      H1049   1.083       .  S
C1037      C1038   1.399       .  A
C1037      H1050   1.084       .  S
C1038      C1039   1.399       .  A
C1038      C1041   1.439       .  S
C1039      C1040   1.398       .  A
C1039      H1051   1.084       .  S
C1040      H1052   1.083       .  S
C1041      C1042   1.205       .  T
C1042      C1043   1.439       .  S
C1043      C1044   1.399       .  A
C1043      C1048   1.399       .  A
C1044      C1045   1.397       .  A
C1044      H1053   1.084       .  S
C1045      C1046   1.407       .  A
C1045      H1054   1.083       .  S
C1046      C1047   1.407       .  A
C1047      C1048   1.399       .  A
C1047      H1055   1.083       .  S
C1048      H1056   1.084       .  S
C1057      C1058   1.408       .  A
C1057      C1062   1.408       .  A
C1058      C1059   1.398       .  A
C1058      H1071   1.083       .  S
C1059      C1060   1.399       .  A
C1059      H1072   1.084       .  S
C1060      C1061   1.401       .  A
C1060      C1063   1.442       .  S
C1061      C1062   1.401       .  A
C1061      H1073   1.083       .  S
C1062      H1074   1.083       .  S
C1063      C1064   1.208   1_655  T
C1064      C1065   1.442       .  S
C1065      C1066   1.400       .  A
C1065      C1070   1.400       .  A
C1066      C1067   1.399       .  A
C1066      H1075   1.083       .  S
C1067      C1068   1.408       .  A
C1067      H1076   1.083       .  S
C1068      C1069   1.407       .  A
C1069      C1070   1.400       .  A
C1069      H1077   1.083       .  S
C1070      H1078   1.084       .  S
C1079      C1080   1.408       .  A
C1079      C1084   1.408       .  A
C1080      C1081   1.401       .  A
C1080      H1093   1.083       .  S
C1081      C1082   1.401       .  A
C1081      H1094   1.083       .  S
C1082      C1083   1.399       .  A
C1082      C1085   1.443       .  S
C1083      C1084   1.399       .  A
C1083      H1095   1.084       .  S
C1084      H1096   1.083       .  S
C1085      C1086   1.208   1_655  T
C1086      C1087   1.443       .  S
C1087      C1088   1.399       .  A
C1087      C1092   1.401       .  A
C1088      C1089   1.398       .  A
C1088      H1097   1.084       .  S
C1089      C1090   1.408       .  A
C1089      H1098   1.083       .  S
C1090      C1091   1.408       .  A
C1091      C1092   1.401       .  A
C1091      H1099   1.083       .  S
C1092      H1100   1.083       .  S
C1101      C1102   1.407       .  A
C1101      C1106   1.407       .  A
C1102      C1103   1.398       .  A
C1102      H1115   1.083       .  S
C1103      C1104   1.399       .  A
C1103      H1116   1.084       .  S
C1104      C1105   1.399       .  A
C1104      C1107   1.439       .  S
C1105      C1106   1.398       .  A
C1105      H1117   1.083       .  S
C1106      H1118   1.083       .  S
C1107      C1108   1.206       .  T
C1108      C1109   1.439       .  S
C1109      C1110   1.400       .  A
C1109      C1114   1.399       .  A
C1110      C1111   1.399       .  A
C1110      H1119   1.084       .  S
C1111      C1112   1.408       .  A
C1111      H1120   1.083       .  S
C1112      C1113   1.407       .  A
C1113      C1114   1.397       .  A
C1113      H1121   1.083       .  S
C1114      H1122   1.084       .  S
C1123      C1124   1.408       .  A
C1123      C1128   1.407       .  A
C1124      C1125   1.400       .  A
C1124      H1137   1.083       .  S
C1125      C1126   1.400       .  A
C1125      H1138   1.084       .  S
C1126      C1127   1.399       .  A
C1126      C1129   1.440       .  S
C1127      C1128   1.398       .  A
C1127      H1139   1.084       .  S
C1128      H1140   1.083       .  S
C1129      C1130   1.206       .  T
C1130      C1131   1.440       .  S
C1131      C1132   1.400       .  A
C1131      C1136   1.399       .  A
C1132      C1133   1.399       .  A
C1132      H1141   1.083       .  S
C1133      C1134   1.407       .  A
C1133      H1142   1.083       .  S
C1134      C1135   1.407       .  A
C1135      C1136   1.398       .  A
C1135      H1143   1.083       .  S
C1136      H1144   1.084       .  S
C1145      C1146   1.407       .  A
C1145      C1150   1.407       .  A
C1146      C1147   1.398       .  A
C1146      H1159   1.083       .  S
C1147      C1148   1.399       .  A
C1147      H1160   1.084       .  S
C1148      C1149   1.400       .  A
C1148      C1151   1.439       .  S
C1149      C1150   1.398       .  A
C1149      H1161   1.083       .  S
C1150      H1162   1.083       .  S
C1151      C1152   1.206       .  T
C1152      C1153   1.439       .  S
C1153      C1154   1.399       .  A
C1153      C1158   1.400       .  A
C1154      C1155   1.398       .  A
C1154      H1163   1.084       .  S
C1155      C1156   1.407       .  A
C1155      H1164   1.083       .  S
C1156      C1157   1.408       .  A
C1157      C1158   1.399       .  A
C1157      H1165   1.083       .  S
C1158      H1166   1.083       .  S
C1167      C1168   1.408       .  A
C1167      C1172   1.407       .  A
C1168      C1169   1.398       .  A
C1168      H1181   1.083       .  S
C1169      C1170   1.399       .  A
C1169      H1182   1.084       .  S
C1170      C1171   1.400       .  A
C1170      C1173   1.440       .  S
C1171      C1172   1.399       .  A
C1171      H1183   1.084       .  S
C1172      H1184   1.083       .  S
C1173      C1174   1.206       .  T
C1174      C1175   1.440       .  S
C1175      C1176   1.400       .  A
C1175      C1180   1.399       .  A
C1176      C1177   1.399       .  A
C1176      H1185   1.084       .  S
C1177      C1178   1.408       .  A
C1177      H1186   1.083       .  S
C1178      C1179   1.408       .  A
C1179      C1180   1.398       .  A
C1179      H1187   1.083       .  S
C1180      H1188   1.084       .  S
C1189      C1190   1.407       .  A
C1189      C1194   1.407       .  A
C1190      C1191   1.399       .  A
C1190      H1203   1.083       .  S
C1191      C1192   1.400       .  A
C1191      H1204   1.084       .  S
C1192      C1193   1.399       .  A
C1192      C1195   1.440       .  S
C1193      C1194   1.398       .  A
C1193      H1205   1.084       .  S
C1194      H1206   1.083       .  S
C1195      C1196   1.206       .  T
C1196      C1197   1.439       .  S
C1197      C1198   1.399       .  A
C1197      C1202   1.399       .  A
C1198      C1199   1.399       .  A
C1198      H1207   1.084       .  S
C1199      C1200   1.408       .  A
C1199      H1208   1.083       .  S
C1200      C1201   1.408       .  A
C1201      C1202   1.398       .  A
C1201      H1209   1.083       .  S
C1202      H1210   1.084       .  S
C1211      C1212   1.408       .  A
C1211      C1216   1.408       .  A
C1212      C1213   1.400       .  A
C1212      H1225   1.083       .  S
C1213      C1214   1.400       .  A
C1213      H1226   1.084       .  S
C1214      C1215   1.399       .  A
C1214      C1217   1.441       .  S
C1215      C1216   1.398       .  A
C1215      H1227   1.084       .  S
C1216      H1228   1.083       .  S
C1217      C1218   1.207       .  T
C1218      C1219   1.441       .  S
C1219      C1220   1.400       .  A
C1219      C1224   1.400       .  A
C1220      C1221   1.399       .  A
C1220      H1229   1.083       .  S
C1221      C1222   1.408       .  A
C1221      H1230   1.083       .  S
C1222      C1223   1.408       .  A
C1223      C1224   1.399       .  A
C1223      H1231   1.083       .  S
C1224      H1232   1.084       .  S
C1233      C1234   1.408       .  A
C1233      C1238   1.408       .  A
C1234      C1235   1.399       .  A
C1234      H1247   1.083       .  S
C1235      C1236   1.400       .  A
C1235      H1248   1.083       .  S
C1236      C1237   1.400       .  A
C1236      C1239   1.442       .  S
C1237      C1238   1.399       .  A
C1237      H1249   1.084       .  S
C1238      H1250   1.083       .  S
C1239      C1240   1.207       .  T
C1240      C1241   1.442       .  S
C1241      C1242   1.400       .  A
C1241      C1246   1.399       .  A
C1242      C1243   1.400       .  A
C1242      H1251   1.084       .  S
C1243      C1244   1.408       .  A
C1243      H1252   1.083       .  S
C1244      C1245   1.408       .  A
C1245      C1246   1.399       .  A
C1245      H1253   1.083       .  S
C1246      H1254   1.084       .  S
C1255      C1256   1.408       .  A
C1255      C1260   1.407       .  A
C1256      C1257   1.399       .  A
C1256      H1269   1.083       .  S
C1257      C1258   1.400       .  A
C1257      H1270   1.083       .  S
C1258      C1259   1.399       .  A
C1258      C1261   1.440       .  S
C1259      C1260   1.398       .  A
C1259      H1271   1.084       .  S
C1260      H1272   1.083       .  S
C1261      C1262   1.206       .  T
C1262      C1263   1.440       .  S
C1263      C1264   1.399       .  A
C1263      C1268   1.400       .  A
C1264      C1265   1.398       .  A
C1264      H1273   1.084       .  S
C1265      C1266   1.408       .  A
C1265      H1274   1.083       .  S
C1266      C1267   1.408       .  A
C1267      C1268   1.399       .  A
C1267      H1275   1.083       .  S
C1268      H1276   1.084       .  S
C1277      C1278   1.408       .  A
C1277      C1282   1.408       .  A
C1278      C1279   1.400       .  A
C1278      H1291   1.083       .  S
C1279      C1280   1.400       .  A
C1279      H1292   1.084       .  S
C1280      C1281   1.400       .  A
C1280      C1283   1.444       .  S
C1281      C1282   1.400       .  A
C1281      H1293   1.083       .  S
C1282      H1294   1.083       .  S
C1283      C1284   1.208       .  T
C1284      C1285   1.444       .  S
C1285      C1286   1.399       .  A
C1285      C1290   1.401       .  A
C1286      C1287   1.399       .  A
C1286      H1295   1.084       .  S
C1287      C1288   1.408       .  A
C1287      H1296   1.083       .  S
C1288      C1289   1.408       .  A
C1289      C1290   1.401       .  A
C1289      H1297   1.083       .  S
C1290      H1298   1.083       .  S
C1299      C1300   1.408       .  A
C1299      C1304   1.408       .  A
C1300      C1301   1.399       .  A
C1300      H1313   1.083       .  S
C1301      C1302   1.400       .  A
C1301      H1314   1.084       .  S
C1302      C1303   1.400       .  A
C1302      C1305   1.441       .  S
C1303      C1304   1.399       .  A
C1303      H1315   1.083       .  S
C1304      H1316   1.083       .  S
C1305      C1306   1.207       .  T
C1306      C1307   1.441       .  S
C1307      C1308   1.399       .  A
C1307      C1312   1.400       .  A
C1308      C1309   1.398       .  A
C1308      H1317   1.084       .  S
C1309      C1310   1.408       .  A
C1309      H1318   1.083       .  S
C1310      C1311   1.408       .  A
C1311      C1312   1.400       .  A
C1311      H1319   1.083       .  S
C1312      H1320   1.083       .  S
C1321      C1322   1.408       .  A
C1321      C1326   1.408       .  A
C1322      C1323   1.399       .  A
C1322      H1335   1.083       .  S
C1323      C1324   1.399       .  A
C1323      H1336   1.083       .  S
C1324      C1325   1.400       .  A
C1324      C1327   1.440       .  S
C1325      C1326   1.398       .  A
C1325      H1337   1.084       .  S
C1326      H1338   1.083       .  S
C1327      C1328   1.206       .  T
C1328      C1329   1.440       .  S
C1329      C1330   1.398       .  A
C1329      C1334   1.401       .  A
C1330      C1331   1.396       .  A
C1330      H1339   1.084       .  S
C1331      C1332   1.407       .  A
C1331      H1340   1.083       .  S
C1332      C1333   1.408       .  A
C1333      C1334   1.401       .  A
C1333      H1341   1.083       .  S
C1334      H1342   1.083       .  S
C1343      C1344   1.407       .  A
C1343      C1348   1.408       .  A
C1344      C1345   1.400       .  A
C1344      H1357   1.083       .  S
C1345      C1346   1.401       .  A
C1345      H1358   1.084       .  S
C1346      C1347   1.400       .  A
C1346      C1349   1.443       .  S
C1347      C1348   1.399       .  A
C1347      H1359   1.083       .  S
C1348      H1360   1.083       .  S
C1349      C1350   1.208   1_545  T
C1350      C1351   1.443       .  S
C1351      C1352   1.401       .  A
C1351      C1356   1.399       .  A
C1352      C1353   1.402       .  A
C1352      H1361   1.084       .  S
C1353      C1354   1.408       .  A
C1353      H1362   1.083       .  S
C1354      C1355   1.408       .  A
C1355      C1356   1.397       .  A
C1355      H1363   1.083       .  S
C1356      H1364   1.083       .  S
C1365      C1366   1.407       .  A
C1365      C1370   1.408       .  A
C1366      C1367   1.399       .  A
C1366      H1379   1.083       .  S
C1367      C1368   1.400       .  A
C1367      H1380   1.083       .  S
C1368      C1369   1.399       .  A
C1368      C1371   1.441       .  S
C1369      C1370   1.399       .  A
C1369      H1381   1.084       .  S
C1370      H1382   1.083       .  S
C1371      C1372   1.207       .  T
C1372      C1373   1.441       .  S
C1373      C1374   1.400       .  A
C1373      C1378   1.399       .  A
C1374      C1375   1.399       .  A
C1374      H1383   1.083       .  S
C1375      C1376   1.408       .  A
C1375      H1384   1.083       .  S
C1376      C1377   1.408       .  A
C1377      C1378   1.399       .  A
C1377      H1385   1.083       .  S
C1378      H1386   1.084       .  S
C1387      C1388   1.408       .  A
C1387      C1392   1.407       .  A
C1388      C1389   1.398       .  A
C1388      H1401   1.083       .  S
C1389      C1390   1.399       .  A
C1389      H1402   1.084       .  S
C1390      C1391   1.400       .  A
C1390      C1393   1.441       .  S
C1391      C1392   1.400       .  A
C1391      H1403   1.083       .  S
C1392      H1404   1.083       .  S
C1393      C1394   1.207       .  T
C1394      C1395   1.441       .  S
C1395      C1396   1.399       .  A
C1395      C1400   1.400       .  A
C1396      C1397   1.398       .  A
C1396      H1405   1.084       .  S
C1397      C1398   1.408       .  A
C1397      H1406   1.083       .  S
C1398      C1399   1.408       .  A
C1399      C1400   1.400       .  A
C1399      H1407   1.083       .  S
C1400      H1408   1.083       .  S
C1409      C1410   1.408       .  A
C1409      C1414   1.408       .  A
C1410      C1411   1.401       .  A
C1410      H1423   1.083       .  S
C1411      C1412   1.400       .  A
C1411      H1424   1.083       .  S
C1412      C1413   1.399       .  A
C1412      C1415   1.442       .  S
C1413      C1414   1.398       .  A
C1413      H1425   1.084       .  S
C1414      H1426   1.083       .  S
C1415      C1416   1.207   1_655  T
C1416      C1417   1.442       .  S
C1417      C1418   1.399       .  A
C1417      C1422   1.401       .  A
C1418      C1419   1.397       .  A
C1418      H1427   1.084       .  S
C1419      C1420   1.408       .  A
C1419      H1428   1.083       .  S
C1420      C1421   1.408       .  A
C1421      C1422   1.401       .  A
C1421      H1429   1.083       .  S
C1422      H1430   1.083       .  S
C1431      C1432   1.407       .  A
C1431      C1436   1.408       .  A
C1432      C1433   1.398       .  A
C1432      H1445   1.083       .  S
C1433      C1434   1.399       .  A
C1433      H1446   1.083       .  S
C1434      C1435   1.400       .  A
C1434      C1437   1.441       .  S
C1435      C1436   1.400       .  A
C1435      H1447   1.084       .  S
C1436      H1448   1.083       .  S
C1437      C1438   1.207       .  T
C1438      C1439   1.441       .  S
C1439      C1440   1.400       .  A
C1439      C1444   1.400       .  A
C1440      C1441   1.399       .  A
C1440      H1449   1.083       .  S
C1441      C1442   1.408       .  A
C1441      H1450   1.083       .  S
C1442      C1443   1.407       .  A
C1443      C1444   1.399       .  A
C1443      H1451   1.083       .  S
C1444      H1452   1.084       .  S
C1453      C1454   1.408       .  A
C1453      C1458   1.407       .  A
C1454      C1455   1.399       .  A
C1454      H1467   1.083       .  S
C1455      C1456   1.399       .  A
C1455      H1468   1.083       .  S
C1456      C1457   1.400       .  A
C1456      C1459   1.441       .  S
C1457      C1458   1.399       .  A
C1457      H1469   1.084       .  S
C1458      H1470   1.083       .  S
C1459      C1460   1.207       .  T
C1460      C1461   1.441       .  S
C1461      C1462   1.399       .  A
C1461      C1466   1.400       .  A
C1462      C1463   1.399       .  A
C1462      H1471   1.083       .  S
C1463      C1464   1.408       .  A
C1463      H1472   1.083       .  S
C1464      C1465   1.408       .  A
C1465      C1466   1.399       .  A
C1465      H1473   1.083       .  S
C1466      H1474   1.084       .  S
C1475      C1476   1.408       .  A
C1475      C1480   1.408       .  A
C1476      C1477   1.399       .  A
C1476      H1489   1.083       .  S
C1477      C1478   1.400       .  A
C1477      H1490   1.084       .  S
C1478      C1479   1.400       .  A
C1478      C1481   1.443       .  S
C1479      C1480   1.400       .  A
C1479      H1491   1.083       .  S
C1480      H1492   1.083       .  S
C1481      C1482   1.208   1_455  T
C1482      C1483   1.443       .  S
C1483      C1484   1.401       .  A
C1483      C1488   1.400       .  A
C1484      C1485   1.400       .  A
C1484      H1493   1.084       .  S
C1485      C1486   1.408       .  A
C1485      H1494   1.083       .  S
C1486      C1487   1.408       .  A
C1487      C1488   1.399       .  A
C1487      H1495   1.083       .  S
C1488      H1496   1.083       .  S
C1497      C1498   1.408       .  A
C1497      C1502   1.408       .  A
C1498      C1499   1.399       .  A
C1498      H1511   1.083       .  S
C1499      C1500   1.400       .  A
C1499      H1512   1.084       .  S
C1500      C1501   1.401       .  A
C1500      C1503   1.443       .  S
C1501      C1502   1.400       .  A
C1501      H1513   1.084       .  S
C1502      H1514   1.083       .  S
C1503      C1504   1.208   1_565  T
C1504      C1505   1.443       .  S
C1505      C1506   1.399       .  A
C1505      C1510   1.401       .  A
C1506      C1507   1.398       .  A
C1506      H1515   1.084       .  S
C1507      C1508   1.407       .  A
C1507      H1516   1.083       .  S
C1508      C1509   1.408       .  A
C1509      C1510   1.401       .  A
C1509      H1517   1.083       .  S
C1510      H1518   1.083       .  S
C1519      C1520   1.408       .  A
C1519      C1524   1.408       .  A
C1520      C1521   1.399       .  A
C1520      H1533   1.083       .  S
C1521      C1522   1.400       .  A
C1521      H1534   1.083       .  S
C1522      C1523   1.399       .  A
C1522      C1525   1.440       .  S
C1523      C1524   1.399       .  A
C1523      H1535   1.084       .  S
C1524      H1536   1.083       .  S
C1525      C1526   1.206       .  T
C1526      C1527   1.440       .  S
C1527      C1528   1.400       .  A
C1527      C1532   1.399       .  A
C1528      C1529   1.399       .  A
C1528      H1537   1.083       .  S
C1529      C1530   1.407       .  A
C1529      H1538   1.083       .  S
C1530      C1531   1.408       .  A
C1531      C1532   1.398       .  A
C1531      H1539   1.083       .  S
C1532      H1540   1.084       .  S
C1541      C1542   1.407       .  A
C1541      C1546   1.408       .  A
C1542      C1543   1.399       .  A
C1542      H1555   1.083       .  S
C1543      C1544   1.400       .  A
C1543      H1556   1.083       .  S
C1544      C1545   1.400       .  A
C1544      C1547   1.440       .  S
C1545      C1546   1.399       .  A
C1545      H1557   1.084       .  S
C1546      H1558   1.083       .  S
C1547      C1548   1.206       .  T
C1548      C1549   1.440       .  S
C1549      C1550   1.399       .  A
C1549      C1554   1.400       .  A
C1550      C1551   1.397       .  A
C1550      H1559   1.083       .  S
C1551      C1552   1.407       .  A
C1551      H1560   1.083       .  S
C1552      C1553   1.407       .  A
C1553      C1554   1.400       .  A
C1553      H1561   1.083       .  S
C1554      H1562   1.084       .  S
C1563      C1564   1.407       .  A
C1563      C1568   1.408       .  A
C1564      C1565   1.398       .  A
C1564      H1577   1.083       .  S
C1565      C1566   1.399       .  A
C1565      H1578   1.084       .  S
C1566      C1567   1.400       .  A
C1566      C1569   1.439       .  S
C1567      C1568   1.399       .  A
C1567      H1579   1.084       .  S
C1568      H1580   1.083       .  S
C1569      C1570   1.206       .  T
C1570      C1571   1.439       .  S
C1571      C1572   1.399       .  A
C1571      C1576   1.400       .  A
C1572      C1573   1.398       .  A
C1572      H1581   1.084       .  S
C1573      C1574   1.407       .  A
C1573      H1582   1.083       .  S
C1574      C1575   1.407       .  A
C1575      C1576   1.398       .  A
C1575      H1583   1.083       .  S
C1576      H1584   1.084       .  S
C1585      C1586   1.408       .  A
C1585      C1590   1.407       .  A
C1586      C1587   1.398       .  A
C1586      H1599   1.083       .  S
C1587      C1588   1.399       .  A
C1587      H1600   1.083       .  S
C1588      C1589   1.400       .  A
C1588      C1591   1.441       .  S
C1589      C1590   1.400       .  A
C1589      H1601   1.084       .  S
C1590      H1602   1.083       .  S
C1591      C1592   1.207   1_554  T
C1592      C1593   1.441       .  S
C1593      C1594   1.400       .  A
C1593      C1598   1.400       .  A
C1594      C1595   1.400       .  A
C1594      H1603   1.083       .  S
C1595      C1596   1.408       .  A
C1595      H1604   1.083       .  S
C1596      C1597   1.408       .  A
C1597      C1598   1.399       .  A
C1597      H1605   1.083       .  S
C1598      H1606   1.084       .  S
C1607      C1608   1.408       .  A
C1607      C1612   1.408       .  A
C1608      C1609   1.399       .  A
C1608      H1621   1.083       .  S
C1609      C1610   1.400       .  A
C1609      H1622   1.084       .  S
C1610      C1611   1.400       .  A
C1610      C1613   1.441       .  S
C1611      C1612   1.399       .  A
C1611      H1623   1.083       .  S
C1612      H1624   1.083       .  S
C1613      C1614   1.207   1_554  T
C1614      C1615   1.441       .  S
C1615      C1616   1.400       .  A
C1615      C1620   1.399       .  A
C1616      C1617   1.400       .  A
C1616      H1625   1.084       .  S
C1617      C1618   1.408       .  A
C1617      H1626   1.083       .  S
C1618      C1619   1.408       .  A
C1619      C1620   1.398       .  A
C1619      H1627   1.083       .  S
C1620      H1628   1.084       .  S
C1629      C1630   1.407       .  A
C1629      C1634   1.407       .  A
C1630      C1631   1.398       .  A
C1630      H1643   1.083       .  S
C1631      C1632   1.399       .  A
C1631      H1644   1.083       .  S
C1632      C1633   1.399       .  A
C1632      C1635   1.438       .  S
C1633      C1634   1.397       .  A
C1633      H1645   1.084       .  S
C1634      H1646   1.083       .  S
C1635      C1636   1.205       .  T
C1636      C1637   1.438       .  S
C1637      C1638   1.399       .  A
C1637      C1642   1.399       .  A
C1638      C1639   1.398       .  A
C1638      H1647   1.083       .  S
C1639      C1640   1.407       .  A
C1639      H1648   1.083       .  S
C1640      C1641   1.407       .  A
C1641      C1642   1.398       .  A
C1641      H1649   1.083       .  S
C1642      H1650   1.084       .  S
C1651      C1652   1.408       .  A
C1651      C1656   1.408       .  A
C1652      C1653   1.399       .  A
C1652      H1665   1.083       .  S
C1653      C1654   1.400       .  A
C1653      H1666   1.084       .  S
C1654      C1655   1.400       .  A
C1654      C1657   1.442       .  S
C1655      C1656   1.399       .  A
C1655      H1667   1.083       .  S
C1656      H1668   1.083       .  S
C1657      C1658   1.208       .  T
C1658      C1659   1.443       .  S
C1659      C1660   1.400       .  A
C1659      C1664   1.400       .  A
C1660      C1661   1.399       .  A
C1660      H1669   1.084       .  S
C1661      C1662   1.408       .  A
C1661      H1670   1.083       .  S
C1662      C1663   1.408       .  A
C1663      C1664   1.400       .  A
C1663      H1671   1.083       .  S
C1664      H1672   1.083       .  S
C1673      C1674   1.407       .  A
C1673      C1678   1.408       .  A
C1674      C1675   1.397       .  A
C1674      H1687   1.083       .  S
C1675      C1676   1.399       .  A
C1675      H1688   1.084       .  S
C1676      C1677   1.400       .  A
C1676      C1679   1.439       .  S
C1677      C1678   1.399       .  A
C1677      H1689   1.083       .  S
C1678      H1690   1.083       .  S
C1679      C1680   1.206       .  T
C1680      C1681   1.439       .  S
C1681      C1682   1.399       .  A
C1681      C1686   1.399       .  A
C1682      C1683   1.398       .  A
C1682      H1691   1.084       .  S
C1683      C1684   1.408       .  A
C1683      H1692   1.083       .  S
C1684      C1685   1.407       .  A
C1685      C1686   1.398       .  A
C1685      H1693   1.083       .  S
C1686      H1694   1.084       .  S
C1695      C1696   1.407       .  A
C1695      C1700   1.407       .  A
C1696      C1697   1.398       .  A
C1696      H1709   1.083       .  S
C1697      C1698   1.399       .  A
C1697      H1710   1.084       .  S
C1698      C1699   1.399       .  A
C1698      C1701   1.438       .  S
C1699      C1700   1.398       .  A
C1699      H1711   1.084       .  S
C1700      H1712   1.083       .  S
C1701      C1702   1.205       .  T
C1702      C1703   1.438       .  S
C1703      C1704   1.400       .  A
C1703      C1708   1.398       .  A
C1704      C1705   1.399       .  A
C1704      H1713   1.084       .  S
C1705      C1706   1.407       .  A
C1705      H1714   1.083       .  S
C1706      C1707   1.408       .  A
C1707      C1708   1.397       .  A
C1707      H1715   1.083       .  S
C1708      H1716   1.084       .  S
C1717      C1718   1.408       .  A
C1717      C1722   1.408       .  A
C1718      C1719   1.399       .  A
C1718      H1731   1.083       .  S
C1719      C1720   1.400       .  A
C1719      H1732   1.084       .  S
C1720      C1721   1.400       .  A
C1720      C1723   1.442       .  S
C1721      C1722   1.399       .  A
C1721      H1733   1.084       .  S
C1722      H1734   1.083       .  S
C1723      C1724   1.207       .  T
C1724      C1725   1.442       .  S
C1725      C1726   1.401       .  A
C1725      C1730   1.399       .  A
C1726      C1727   1.400       .  A
C1726      H1735   1.083       .  S
C1727      C1728   1.408       .  A
C1727      H1736   1.083       .  S
C1728      C1729   1.408       .  A
C1729      C1730   1.398       .  A
C1729      H1737   1.083       .  S
C1730      H1738   1.084       .  S
C1739      C1740   1.407       .  A
C1739      C1744   1.408       .  A
C1740      C1741   1.399       .  A
C1740      H1753   1.083       .  S
C1741      C1742   1.400       .  A
C1741      H1754   1.084       .  S
C1742      C1743   1.399       .  A
C1742      C1745   1.440       .  S
C1743      C1744   1.398       .  A
C1743      H1755   1.084       .  S
C1744      H1756   1.083       .  S
C1745      C1746   1.206       .  T
C1746      C1747   1.440       .  S
C1747      C1748   1.399       .  A
C1747      C1752   1.400       .  A
C1748      C1749   1.398       .  A
C1748      H1757   1.083       .  S
C1749      C1750   1.408       .  A
C1749      H1758   1.083       .  S
C1750      C1751   1.407       .  A
C1751      C1752   1.399       .  A
C1751      H1759   1.083       .  S
C1752      H1760   1.084       .  S
C1761      C1762   1.407       .  A
C1761      C1766   1.408       .  A
C1762      C1763   1.398       .  A
C1762      H1775   1.083       .  S
C1763      C1764   1.399       .  A
C1763      H1776   1.084       .  S
C1764      C1765   1.400       .  A
C1764      C1767   1.440       .  S
C1765      C1766   1.399       .  A
C1765      H1777   1.083       .  S
C1766      H1778   1.083       .  S
C1767      C1768   1.206       .  T
C1768      C1769   1.440       .  S
C1769      C1770   1.399       .  A
C1769      C1774   1.400       .  A
C1770      C1771   1.399       .  A
C1770      H1779   1.084       .  S
C1771      C1772   1.408       .  A
C1771      H1780   1.083       .  S
C1772      C1773   1.407       .  A
C1773      C1774   1.398       .  A
C1773      H1781   1.083       .  S
C1774      H1782   1.083       .  S
C1783      C1784   1.408       .  A
C1783      C1788   1.408       .  A
C1784      C1785   1.399       .  A
C1784      H1797   1.083       .  S
C1785      C1786   1.400       .  A
C1785      H1798   1.084       .  S
C1786      C1787   1.400       .  A
C1786      C1789   1.440       .  S
C1787      C1788   1.399       .  A
C1787      H1799   1.084       .  S
C1788      H1800   1.083       .  S
C1789      C1790   1.206       .  T
C1790      C1791   1.440       .  S
C1791      C1792   1.400       .  A
C1791      C1796   1.399       .  A
C1792      C1793   1.399       .  A
C1792      H1801   1.084       .  S
C1793      C1794   1.408       .  A
C1793      H1802   1.083       .  S
C1794      C1795   1.408       .  A
C1795      C1796   1.398       .  A
C1795      H1803   1.083       .  S
C1796      H1804   1.084       .  S
C1805      C1806   1.408       .  A
C1805      C1810   1.407       .  A
C1806      C1807   1.399       .  A
C1806      H1819   1.083       .  S
C1807      C1808   1.400       .  A
C1807      H1820   1.083       .  S
C1808      C1809   1.399       .  A
C1808      C1811   1.440       .  S
C1809      C1810   1.398       .  A
C1809      H1821   1.084       .  S
C1810      H1822   1.083       .  S
C1811      C1812   1.206       .  T
C1812      C1813   1.440       .  S
C1813      C1814   1.400       .  A
C1813      C1818   1.399       .  A
C1814      C1815   1.399       .  A
C1814      H1823   1.083       .  S
C1815      C1816   1.408       .  A
C1815      H1824   1.083       .  S
C1816      C1817   1.408       .  A
C1817      C1818   1.398       .  A
C1817      H1825   1.083       .  S
C1818      H1826   1.084       .  S
C1827      C1828   1.408       .  A
C1827      C1832   1.408       .  A
C1828      C1829   1.398       .  A
C1828      H1841   1.083       .  S
C1829      C1830   1.399       .  A
C1829      H1842   1.084       .  S
C1830      C1831   1.401       .  A
C1830      C1833   1.441       .  S
C1831      C1832   1.400       .  A
C1831      H1843   1.083       .  S
C1832      H1844   1.083       .  S
C1833      C1834   1.207       .  T
C1834      C1835   1.441       .  S
C1835      C1836   1.399       .  A
C1835      C1840   1.400       .  A
C1836      C1837   1.399       .  A
C1836      H1845   1.083       .  S
C1837      C1838   1.407       .  A
C1837      H1846   1.083       .  S
C1838      C1839   1.408       .  A
C1839      C1840   1.399       .  A
C1839      H1847   1.083       .  S
C1840      H1848   1.084       .  S
C1849      C1850   1.408       .  A
C1849      C1854   1.408       .  A
C1850      C1851   1.398       .  A
C1850      H1863   1.083       .  S
C1851      C1852   1.399       .  A
C1851      H1864   1.083       .  S
C1852      C1853   1.401       .  A
C1852      C1855   1.442       .  S
C1853      C1854   1.401       .  A
C1853      H1865   1.084       .  S
C1854      H1866   1.083       .  S
C1855      C1856   1.207       .  T
C1856      C1857   1.442       .  S
C1857      C1858   1.399       .  A
C1857      C1862   1.401       .  A
C1858      C1859   1.398       .  A
C1858      H1867   1.083       .  S
C1859      C1860   1.408       .  A
C1859      H1868   1.083       .  S
C1860      C1861   1.408       .  A
C1861      C1862   1.400       .  A
C1861      H1869   1.083       .  S
C1862      H1870   1.084       .  S
C1871      C1872   1.407       .  A
C1871      C1876   1.408       .  A
C1872      C1873   1.398       .  A
C1872      H1885   1.083       .  S
C1873      C1874   1.399       .  A
C1873      H1886   1.084       .  S
C1874      C1875   1.400       .  A
C1874      C1877   1.442       .  S
C1875      C1876   1.400       .  A
C1875      H1887   1.083       .  S
C1876      H1888   1.083       .  S
C1877      C1878   1.207   1_556  T
C1878      C1879   1.442       .  S
C1879      C1880   1.400       .  A
C1879      C1884   1.400       .  A
C1880      C1881   1.400       .  A
C1880      H1889   1.084       .  S
C1881      C1882   1.408       .  A
C1881      H1890   1.083       .  S
C1882      C1883   1.408       .  A
C1883      C1884   1.398       .  A
C1883      H1891   1.083       .  S
C1884      H1892   1.084       .  S
C1893      C1894   1.408       .  A
C1893      C1898   1.407       .  A
C1894      C1895   1.399       .  A
C1894      H1907   1.083       .  S
C1895      C1896   1.400       .  A
C1895      H1908   1.084       .  S
C1896      C1897   1.400       .  A
C1896      C1899   1.440       .  S
C1897      C1898   1.398       .  A
C1897      H1909   1.083       .  S
C1898      H1910   1.083       .  S
C1899      C1900   1.206       .  T
C1900      C1901   1.440       .  S
C1901      C1902   1.400       .  A
C1901      C1906   1.399       .  A
C1902      C1903   1.399       .  A
C1902      H1911   1.084       .  S
C1903      C1904   1.407       .  A
C1903      H1912   1.083       .  S
C1904      C1905   1.408       .  A
C1905      C1906   1.398       .  A
C1905      H1913   1.083       .  S
C1906      H1914   1.083       .  S
C1915      C1916   1.408       .  A
C1915      C1920   1.408       .  A
C1916      C1917   1.400       .  A
C1916      H1929   1.083       .  S
C1917      C1918   1.400       .  A
C1917      H1930   1.084       .  S
C1918      C1919   1.400       .  A
C1918      C1921   1.443       .  S
C1919      C1920   1.399       .  A
C1919      H1931   1.083       .  S
C1920      H1932   1.083       .  S
C1921      C1922   1.208   1_545  T
C1922      C1923   1.442       .  S
C1923      C1924   1.401       .  A
C1923      C1928   1.399       .  A
C1924      C1925   1.401       .  A
C1924      H1933   1.084       .  S
C1925      C1926   1.407       .  A
C1925      H1934   1.083       .  S
C1926      C1927   1.408       .  A
C1927      C1928   1.398       .  A
C1927      H1935   1.083       .  S
C1928      H1936   1.083       .  S
C1937      C1938   1.408       .  A
C1937      C1942   1.408       .  A
C1938      C1939   1.397       .  A
C1938      H1951   1.083       .  S
C1939      C1940   1.399       .  A
C1939      H1952   1.084       .  S
C1940      C1941   1.401       .  A
C1940      C1943   1.440       .  S
C1941      C1942   1.400       .  A
C1941      H1953   1.083       .  S
C1942      H1954   1.083       .  S
C1943      C1944   1.206   1_556  T
C1944      C1945   1.440       .  S
C1945      C1946   1.398       .  A
C1945      C1950   1.401       .  A
C1946      C1947   1.397       .  A
C1946      H1955   1.084       .  S
C1947      C1948   1.408       .  A
C1947      H1956   1.083       .  S
C1948      C1949   1.407       .  A
C1949      C1950   1.401       .  A
C1949      H1957   1.083       .  S
C1950      H1958   1.083       .  S
C1959      C1960   1.407       .  A
C1959      C1964   1.408       .  A
C1960      C1961   1.399       .  A
C1960      H1973   1.083       .  S
C1961      C1962   1.400       .  A
C1961      H1974   1.084       .  S
C1962      C1963   1.400       .  A
C1962      C1965   1.441       .  S
C1963      C1964   1.399       .  A
C1963      H1975   1.083       .  S
C1964      H1976   1.083       .  S
C1965      C1966   1.207       .  T
C1966      C1967   1.441       .  S
C1967      C1968   1.400       .  A
C1967      C1972   1.400       .  A
C1968      C1969   1.400       .  A
C1968      H1977   1.084       .  S
C1969      C1970   1.408       .  A
C1969      H1978   1.083       .  S
C1970      C1971   1.407       .  A
C1971      C1972   1.399       .  A
C1971      H1979   1.083       .  S
C1972      H1980   1.083       .  S
C1981      C1982   1.407       .  A
C1981      C1986   1.408       .  A
C1982      C1983   1.397       .  A
C1982      H1995   1.083       .  S
C1983      C1984   1.399       .  A
C1983      H1996   1.083       .  S
C1984      C1985   1.400       .  A
C1984      C1987   1.439       .  S
C1985      C1986   1.399       .  A
C1985      H1997   1.084       .  S
C1986      H1998   1.083       .  S
C1987      C1988   1.205       .  T
C1988      C1989   1.439       .  S
C1989      C1990   1.400       .  A
C1989      C1994   1.399       .  A
C1990      C1991   1.399       .  A
C1990      H1999   1.083       .  S
C1991      C1992   1.407       .  A
C1991      H2000   1.083       .  S
C1992      C1993   1.407       .  A
C1993      C1994   1.397       .  A
C1993      H2001   1.083       .  S
C1994      H2002   1.084       .  S
C2003      C2004   1.408       .  A
C2003      C2008   1.408       .  A
C2004      C2005   1.399       .  A
C2004      H2017   1.083       .  S
C2005      C2006   1.400       .  A
C2005      H2018   1.083       .  S
C2006      C2007   1.400       .  A
C2006      C2009   1.443       .  S
C2007      C2008   1.401       .  A
C2007      H2019   1.084       .  S
C2008      H2020   1.083       .  S
C2009      C2010   1.208       .  T
C2010      C2011   1.443       .  S
C2011      C2012   1.400       .  A
C2011      C2016   1.400       .  A
C2012      C2013   1.400       .  A
C2012      H2021   1.083       .  S
C2013      C2014   1.408       .  A
C2013      H2022   1.083       .  S
C2014      C2015   1.408       .  A
C2015      C2016   1.399       .  A
C2015      H2023   1.083       .  S
C2016      H2024   1.084       .  S
C2025      C2026   1.408       .  A
C2025      C2030   1.407       .  A
C2026      C2027   1.400       .  A
C2026      H2039   1.083       .  S
C2027      C2028   1.400       .  A
C2027      H2040   1.083       .  S
C2028      C2029   1.400       .  A
C2028      C2031   1.443       .  S
C2029      C2030   1.399       .  A
C2029      H2041   1.084       .  S
C2030      H2042   1.083       .  S
C2031      C2032   1.208   1_565  T
C2032      C2033   1.443       .  S
C2033      C2034   1.400       .  A
C2033      C2038   1.400       .  A
C2034      C2035   1.400       .  A
C2034      H2043   1.083       .  S
C2035      C2036   1.408       .  A
C2035      H2044   1.083       .  S
C2036      C2037   1.408       .  A
C2037      C2038   1.400       .  A
C2037      H2045   1.083       .  S
C2038      H2046   1.084       .  S
C2047      C2048   1.407       .  A
C2047      C2052   1.408       .  A
C2048      C2049   1.399       .  A
C2048      H2061   1.083       .  S
C2049      C2050   1.399       .  A
C2049      H2062   1.083       .  S
C2050      C2051   1.400       .  A
C2050      C2053   1.441       .  S
C2051      C2052   1.399       .  A
C2051      H2063   1.084       .  S
C2052      H2064   1.083       .  S
C2053      C2054   1.207       .  T
C2054      C2055   1.441       .  S
C2055      C2056   1.399       .  A
C2055      C2060   1.401       .  A
C2056      C2057   1.398       .  A
C2056      H2065   1.083       .  S
C2057      C2058   1.408       .  A
C2057      H2066   1.083       .  S
C2058      C2059   1.408       .  A
C2059      C2060   1.401       .  A
C2059      H2067   1.083       .  S
C2060      H2068   1.084       .  S
C2069      C2070   1.407       .  A
C2069      C2074   1.407       .  A
C2070      C2071   1.398       .  A
C2070      H2083   1.083       .  S
C2071      C2072   1.399       .  A
C2071      H2084   1.084       .  S
C2072      C2073   1.399       .  A
C2072      C2075   1.438       .  S
C2073      C2074   1.398       .  A
C2073      H2085   1.084       .  S
C2074      H2086   1.083       .  S
C2075      C2076   1.205       .  T
C2076      C2077   1.438       .  S
C2077      C2078   1.400       .  A
C2077      C2082   1.399       .  A
C2078      C2079   1.399       .  A
C2078      H2087   1.084       .  S
C2079      C2080   1.407       .  A
C2079      H2088   1.083       .  S
C2080      C2081   1.407       .  A
C2081      C2082   1.397       .  A
C2081      H2089   1.083       .  S
C2082      H2090   1.084       .  S
C2091      C2092   1.407       .  A
C2091      C2096   1.408       .  A
C2092      C2093   1.399       .  A
C2092      H2105   1.083       .  S
C2093      C2094   1.400       .  A
C2093      H2106   1.084       .  S
C2094      C2095   1.400       .  A
C2094      C2097   1.443       .  S
C2095      C2096   1.400       .  A
C2095      H2107   1.083       .  S
C2096      H2108   1.083       .  S
C2097      C2098   1.208       .  T
C2098      C2099   1.443       .  S
C2099      C2100   1.400       .  A
C2099      C2104   1.400       .  A
C2100      C2101   1.400       .  A
C2100      H2109   1.084       .  S
C2101      C2102   1.408       .  A
C2101      H2110   1.083       .  S
C2102      C2103   1.408       .  A
C2103      C2104   1.400       .  A
C2103      H2111   1.083       .  S
C2104      H2112   1.084       .  S
C2113      C2114   1.408       .  A
C2113      C2118   1.408       .  A
C2114      C2115   1.398       .  A
C2114      H2127   1.083       .  S
C2115      C2116   1.399       .  A
C2115      H2128   1.084       .  S
C2116      C2117   1.400       .  A
C2116      C2119   1.442       .  S
C2117      C2118   1.400       .  A
C2117      H2129   1.083       .  S
C2118      H2130   1.083       .  S
C2119      C2120   1.207       .  T
C2120      C2121   1.441       .  S
C2121      C2122   1.400       .  A
C2121      C2126   1.399       .  A
C2122      C2123   1.400       .  A
C2122      H2131   1.083       .  S
C2123      C2124   1.408       .  A
C2123      H2132   1.083       .  S
C2124      C2125   1.408       .  A
C2125      C2126   1.398       .  A
C2125      H2133   1.083       .  S
C2126      H2134   1.084       .  S
C2135      C2136   1.408       .  A
C2135      C2140   1.408       .  A
C2136      C2137   1.399       .  A
C2136      H2149   1.083       .  S
C2137      C2138   1.400       .  A
C2137      H2150   1.083       .  S
C2138      C2139   1.400       .  A
C2138      C2141   1.443       .  S
C2139      C2140   1.400       .  A
C2139      H2151   1.084       .  S
C2140      H2152   1.083       .  S
C2141      C2142   1.208       .  T
C2142      C2143   1.443       .  S
C2143      C2144   1.401       .  A
C2143      C2148   1.399       .  A
C2144      C2145   1.401       .  A
C2144      H2153   1.083       .  S
C2145      C2146   1.408       .  A
C2145      H2154   1.083       .  S
C2146      C2147   1.408       .  A
C2147      C2148   1.398       .  A
C2147      H2155   1.083       .  S
C2148      H2156   1.084       .  S
C2157      C2158   1.408       .  A
C2157      C2162   1.408       .  A
C2158      C2159   1.400       .  A
C2158      H2171   1.083       .  S
C2159      C2160   1.400       .  A
C2159      H2172   1.084       .  S
C2160      C2161   1.400       .  A
C2160      C2163   1.443       .  S
C2161      C2162   1.400       .  A
C2161      H2173   1.083       .  S
C2162      H2174   1.083       .  S
C2163      C2164   1.208       .  T
C2164      C2165   1.443       .  S
C2165      C2166   1.399       .  A
C2165      C2170   1.401       .  A
C2166      C2167   1.399       .  A
C2166      H2175   1.084       .  S
C2167      C2168   1.408       .  A
C2167      H2176   1.083       .  S
C2168      C2169   1.408       .  A
C2169      C2170   1.401       .  A
C2169      H2177   1.083       .  S
C2170      H2178   1.083       .  S
C2179      C2180   1.407       .  A
C2179      C2184   1.408       .  A
C2180      C2181   1.398       .  A
C2180      H2193   1.083       .  S
C2181      C2182   1.399       .  A
C2181      H2194   1.084       .  S
C2182      C2183   1.400       .  A
C2182      C2185   1.439       .  S
C2183      C2184   1.399       .  A
C2183      H2195   1.084       .  S
C2184      H2196   1.083       .  S
C2185      C2186   1.206   1_554  T
C2186      C2187   1.439       .  S
C2187      C2188   1.399       .  A
C2187      C2192   1.400       .  A
C2188      C2189   1.398       .  A
C2188      H2197   1.083       .  S
C2189      C2190   1.408       .  A
C2189      H2198   1.083       .  S
C2190      C2191   1.407       .  A
C2191      C2192   1.398       .  A
C2191      H2199   1.083       .  S
C2192      H2200   1.084       .  S
C2201      C2202   1.408       .  A
C2201      C2206   1.407       .  A
C2202      C2203   1.397       .  A
C2202      H2215   1.083       .  S
C2203      C2204   1.399       .  A
C2203      H2216   1.084       .  S
C2204      C2205   1.400       .  A
C2204      C2207   1.438       .  S
C2205      C2206   1.399       .  A
C2205      H2217   1.084       .  S
C2206      H2218   1.083       .  S
C2207      C2208   1.205       .  T
C2208      C2209   1.438       .  S
C2209      C2210   1.399       .  A
C2209      C2214   1.399       .  A
C2210      C2211   1.397       .  A
C2210      H2219   1.084       .  S
C2211      C2212   1.407       .  A
C2211      H2220   1.083       .  S
C2212      C2213   1.408       .  A
C2213      C2214   1.398       .  A
C2213      H2221   1.083       .  S
C2214      H2222   1.084       .  S
C2223      C2224   1.408       .  A
C2223      C2228   1.408       .  A
C2224      C2225   1.401       .  A
C2224      H2237   1.083       .  S
C2225      C2226   1.401       .  A
C2225      H2238   1.083       .  S
C2226      C2227   1.399       .  A
C2226      C2229   1.442       .  S
C2227      C2228   1.397       .  A
C2227      H2239   1.084       .  S
C2228      H2240   1.083       .  S
C2229      C2230   1.207   1_655  T
C2230      C2231   1.442       .  S
C2231      C2232   1.400       .  A
C2231      C2236   1.400       .  A
C2232      C2233   1.399       .  A
C2232      H2241   1.084       .  S
C2233      C2234   1.408       .  A
C2233      H2242   1.083       .  S
C2234      C2235   1.408       .  A
C2235      C2236   1.399       .  A
C2235      H2243   1.083       .  S
C2236      H2244   1.083       .  S
C2245      C2246   1.408       .  A
C2245      C2250   1.407       .  A
C2246      C2247   1.399       .  A
C2246      H2259   1.083       .  S
C2247      C2248   1.400       .  A
C2247      H2260   1.083       .  S
C2248      C2249   1.399       .  A
C2248      C2251   1.439       .  S
C2249      C2250   1.397       .  A
C2249      H2261   1.084       .  S
C2250      H2262   1.083       .  S
C2251      C2252   1.206   1_556  T
C2252      C2253   1.439       .  S
C2253      C2254   1.399       .  A
C2253      C2258   1.400       .  A
C2254      C2255   1.398       .  A
C2254      H2263   1.083       .  S
C2255      C2256   1.407       .  A
C2255      H2264   1.083       .  S
C2256      C2257   1.408       .  A
C2257      C2258   1.399       .  A
C2257      H2265   1.083       .  S
C2258      H2266   1.084       .  S
C2267      C2268   1.408       .  A
C2267      C2272   1.407       .  A
C2268      C2269   1.398       .  A
C2268      H2281   1.083       .  S
C2269      C2270   1.399       .  A
C2269      H2282   1.084       .  S
C2270      C2271   1.399       .  A
C2270      C2273   1.439       .  S
C2271      C2272   1.398       .  A
C2271      H2283   1.084       .  S
C2272      H2284   1.083       .  S
C2273      C2274   1.206       .  T
C2274      C2275   1.439       .  S
C2275      C2276   1.399       .  A
C2275      C2280   1.400       .  A
C2276      C2277   1.398       .  A
C2276      H2285   1.084       .  S
C2277      C2278   1.407       .  A
C2277      H2286   1.083       .  S
C2278      C2279   1.407       .  A
C2279      C2280   1.399       .  A
C2279      H2287   1.083       .  S
C2280      H2288   1.084       .  S
C2289      C2290   1.408       .  A
C2289      C2294   1.408       .  A
C2290      C2291   1.398       .  A
C2290      H2303   1.083       .  S
C2291      C2292   1.399       .  A
C2291      H2304   1.083       .  S
C2292      C2293   1.400       .  A
C2292      C2295   1.441       .  S
C2293      C2294   1.400       .  A
C2293      H2305   1.084       .  S
C2294      H2306   1.083       .  S
C2295      C2296   1.207       .  T
C2296      C2297   1.441       .  S
C2297      C2298   1.400       .  A
C2297      C2302   1.400       .  A
C2298      C2299   1.399       .  A
C2298      H2307   1.083       .  S
C2299      C2300   1.407       .  A
C2299      H2308   1.083       .  S
C2300      C2301   1.408       .  A
C2301      C2302   1.399       .  A
C2301      H2309   1.083       .  S
C2302      H2310   1.084       .  S
C2311      C2312   1.408       .  A
C2311      C2316   1.408       .  A
C2312      C2313   1.398       .  A
C2312      H2325   1.083       .  S
C2313      C2314   1.399       .  A
C2313      H2326   1.084       .  S
C2314      C2315   1.400       .  A
C2314      C2317   1.442       .  S
C2315      C2316   1.401       .  A
C2315      H2327   1.083       .  S
C2316      H2328   1.083       .  S
C2317      C2318   1.207       .  T
C2318      C2319   1.442       .  S
C2319      C2320   1.400       .  A
C2319      C2324   1.400       .  A
C2320      C2321   1.400       .  A
C2320      H2329   1.084       .  S
C2321      C2322   1.408       .  A
C2321      H2330   1.083       .  S
C2322      C2323   1.408       .  A
C2323      C2324   1.398       .  A
C2323      H2331   1.083       .  S
C2324      H2332   1.083       .  S
C2333      C2334   1.408       .  A
C2333      C2338   1.407       .  A
C2334      C2335   1.400       .  A
C2334      H2347   1.083       .  S
C2335      C2336   1.400       .  A
C2335      H2348   1.083       .  S
C2336      C2337   1.399       .  A
C2336      C2339   1.441       .  S
C2337      C2338   1.398       .  A
C2337      H2349   1.084       .  S
C2338      H2350   1.083       .  S
C2339      C2340   1.207   1_655  T
C2340      C2341   1.441       .  S
C2341      C2342   1.400       .  A
C2341      C2346   1.399       .  A
C2342      C2343   1.399       .  A
C2342      H2351   1.083       .  S
C2343      C2344   1.408       .  A
C2343      H2352   1.083       .  S
C2344      C2345   1.408       .  A
C2345      C2346   1.398       .  A
C2345      H2353   1.083       .  S
C2346      H2354   1.084       .  S
C2355      C2356   1.407       .  A
C2355      C2360   1.408       .  A
C2356      C2357   1.398       .  A
C2356      H2369   1.083       .  S
C2357      C2358   1.399       .  A
C2357      H2370   1.083       .  S
C2358      C2359   1.400       .  A
C2358      C2361   1.440       .  S
C2359      C2360   1.399       .  A
C2359      H2371   1.084       .  S
C2360      H2372   1.083       .  S
C2361      C2362   1.206       .  T
C2362      C2363   1.440       .  S
C2363      C2364   1.400       .  A
C2363      C2368   1.399       .  A
C2364      C2365   1.399       .  A
C2364      H2373   1.083       .  S
C2365      C2366   1.407       .  A
C2365      H2374   1.083       .  S
C2366      C2367   1.408       .  A
C2367      C2368   1.399       .  A
C2367      H2375   1.083       .  S
C2368      H2376   1.084       .  S
C2377      C2378   1.407       .  A
C2377      C2382   1.408       .  A
C2378      C2379   1.401       .  A
C2378      H2391   1.083       .  S
C2379      C2380   1.401       .  A
C2379      H2392   1.083       .  S
C2380      C2381   1.399       .  A
C2380      C2383   1.442       .  S
C2381      C2382   1.398       .  A
C2381      H2393   1.084       .  S
C2382      H2394   1.083       .  S
C2383      C2384   1.208       .  T
C2384      C2385   1.442       .  S
C2385      C2386   1.400       .  A
C2385      C2390   1.400       .  A
C2386      C2387   1.399       .  A
C2386      H2395   1.084       .  S
C2387      C2388   1.408       .  A
C2387      H2396   1.083       .  S
C2388      C2389   1.408       .  A
C2389      C2390   1.400       .  A
C2389      H2397   1.083       .  S
C2390      H2398   1.084       .  S
C2399      C2400   1.408       .  A
C2399      C2404   1.407       .  A
C2400      C2401   1.399       .  A
C2400      H2413   1.083       .  S
C2401      C2402   1.400       .  A
C2401      H2414   1.083       .  S
C2402      C2403   1.399       .  A
C2402      C2405   1.440       .  S
C2403      C2404   1.398       .  A
C2403      H2415   1.084       .  S
C2404      H2416   1.083       .  S
C2405      C2406   1.206       .  T
C2406      C2407   1.440       .  S
C2407      C2408   1.399       .  A
C2407      C2412   1.400       .  A
C2408      C2409   1.398       .  A
C2408      H2417   1.084       .  S
C2409      C2410   1.407       .  A
C2409      H2418   1.083       .  S
C2410      C2411   1.408       .  A
C2411      C2412   1.399       .  A
C2411      H2419   1.083       .  S
C2412      H2420   1.084       .  S
C2421      C2422   1.408       .  A
C2421      C2426   1.407       .  A
C2422      C2423   1.400       .  A
C2422      H2435   1.083       .  S
C2423      C2424   1.400       .  A
C2423      H2436   1.083       .  S
C2424      C2425   1.400       .  A
C2424      C2427   1.442       .  S
C2425      C2426   1.399       .  A
C2425      H2437   1.084       .  S
C2426      H2438   1.083       .  S
C2427      C2428   1.207       .  T
C2428      C2429   1.442       .  S
C2429      C2430   1.400       .  A
C2429      C2434   1.400       .  A
C2430      C2431   1.399       .  A
C2430      H2439   1.083       .  S
C2431      C2432   1.408       .  A
C2431      H2440   1.083       .  S
C2432      C2433   1.407       .  A
C2433      C2434   1.400       .  A
C2433      H2441   1.083       .  S
C2434      H2442   1.084       .  S
C2443      C2444   1.408       .  A
C2443      C2448   1.408       .  A
C2444      C2445   1.400       .  A
C2444      H2457   1.083       .  S
C2445      C2446   1.400       .  A
C2445      H2458   1.083       .  S
C2446      C2447   1.400       .  A
C2446      C2449   1.442       .  S
C2447      C2448   1.400       .  A
C2447      H2459   1.084       .  S
C2448      H2460   1.083       .  S
C2449      C2450   1.208       .  T
C2450      C2451   1.442       .  S
C2451      C2452   1.401       .  A
C2451      C2456   1.399       .  A
C2452      C2453   1.401       .  A
C2452      H2461   1.083       .  S
C2453      C2454   1.408       .  A
C2453      H2462   1.083       .  S
C2454      C2455   1.408       .  A
C2455      C2456   1.398       .  A
C2455      H2463   1.083       .  S
C2456      H2464   1.084       .  S
C2465      C2466   1.408       .  A
C2465      C2470   1.408       .  A
C2466      C2467   1.399       .  A
C2466      H2479   1.083       .  S
C2467      C2468   1.399       .  A
C2467      H2480   1.084       .  S
C2468      C2469   1.401       .  A
C2468      C2471   1.442       .  S
C2469      C2470   1.401       .  A
C2469      H2481   1.083       .  S
C2470      H2482   1.083       .  S
C2471      C2472   1.208       .  T
C2472      C2473   1.442       .  S
C2473      C2474   1.400       .  A
C2473      C2478   1.400       .  A
C2474      C2475   1.399       .  A
C2474      H2483   1.084       .  S
C2475      C2476   1.408       .  A
C2475      H2484   1.083       .  S
C2476      C2477   1.408       .  A
C2477      C2478   1.400       .  A
C2477      H2485   1.083       .  S
C2478      H2486   1.083       .  S
C2487      C2488   1.408       .  A
C2487      C2492   1.408       .  A
C2488      C2489   1.398       .  A
C2488      H2501   1.083       .  S
C2489      C2490   1.399       .  A
C2489      H2502   1.084       .  S
C2490      C2491   1.401       .  A
C2490      C2493   1.442       .  S
C2491      C2492   1.401       .  A
C2491      H2503   1.084       .  S
C2492      H2504   1.083       .  S
C2493      C2494   1.208       .  T
C2494      C2495   1.442       .  S
C2495      C2496   1.400       .  A
C2495      C2500   1.400       .  A
C2496      C2497   1.400       .  A
C2496      H2505   1.083       .  S
C2497      C2498   1.408       .  A
C2497      H2506   1.083       .  S
C2498      C2499   1.407       .  A
C2499      C2500   1.399       .  A
C2499      H2507   1.083       .  S
C2500      H2508   1.084       .  S
C2509      C2510   1.407       .  A
C2509      C2514   1.408       .  A
C2510      C2511   1.398       .  A
C2510      H2523   1.083       .  S
C2511      C2512   1.399       .  A
C2511      H2524   1.084       .  S
C2512      C2513   1.400       .  A
C2512      C2515   1.440       .  S
C2513      C2514   1.399       .  A
C2513      H2525   1.083       .  S
C2514      H2526   1.083       .  S
C2515      C2516   1.206   1_655  T
C2516      C2517   1.440       .  S
C2517      C2518   1.399       .  A
C2517      C2522   1.400       .  A
C2518      C2519   1.398       .  A
C2518      H2527   1.084       .  S
C2519      C2520   1.407       .  A
C2519      H2528   1.083       .  S
C2520      C2521   1.408       .  A
C2521      C2522   1.400       .  A
C2521      H2529   1.083       .  S
C2522      H2530   1.083       .  S
C2531      C2532   1.408       .  A
C2531      C2536   1.408       .  A
C2532      C2533   1.400       .  A
C2532      H2545   1.083       .  S
C2533      C2534   1.400       .  A
C2533      H2546   1.084       .  S
C2534      C2535   1.400       .  A
C2534      C2537   1.442       .  S
C2535      C2536   1.399       .  A
C2535      H2547   1.083       .  S
C2536      H2548   1.083       .  S
C2537      C2538   1.207   1_556  T
C2538      C2539   1.442       .  S
C2539      C2540   1.400       .  A
C2539      C2544   1.400       .  A
C2540      C2541   1.399       .  A
C2540      H2549   1.084       .  S
C2541      C2542   1.408       .  A
C2541      H2550   1.083       .  S
C2542      C2543   1.408       .  A
C2543      C2544   1.399       .  A
C2543      H2551   1.083       .  S
C2544      H2552   1.083       .  S
C2553      C2554   1.408       .  A
C2553      C2558   1.407       .  A
C2554      C2555   1.399       .  A
C2554      H2567   1.083       .  S
C2555      C2556   1.400       .  A
C2555      H2568   1.084       .  S
C2556      C2557   1.400       .  A
C2556      C2559   1.441       .  S
C2557      C2558   1.399       .  A
C2557      H2569   1.083       .  S
C2558      H2570   1.083       .  S
C2559      C2560   1.207       .  T
C2560      C2561   1.441       .  S
C2561      C2562   1.400       .  A
C2561      C2566   1.400       .  A
C2562      C2563   1.399       .  A
C2562      H2571   1.084       .  S
C2563      C2564   1.407       .  A
C2563      H2572   1.083       .  S
C2564      C2565   1.408       .  A
C2565      C2566   1.399       .  A
C2565      H2573   1.083       .  S
C2566      H2574   1.083       .  S
C2575      C2576   1.408       .  A
C2575      C2580   1.408       .  A
C2576      C2577   1.400       .  A
C2576      H2589   1.083       .  S
C2577      C2578   1.400       .  A
C2577      H2590   1.084       .  S
C2578      C2579   1.401       .  A
C2578      C2581   1.444       .  S
C2579      C2580   1.401       .  A
C2579      H2591   1.083       .  S
C2580      H2592   1.083       .  S
C2581      C2582   1.209       .  T
C2582      C2583   1.444       .  S
C2583      C2584   1.400       .  A
C2583      C2588   1.400       .  A
C2584      C2585   1.400       .  A
C2584      H2593   1.083       .  S
C2585      C2586   1.408       .  A
C2585      H2594   1.083       .  S
C2586      C2587   1.408       .  A
C2587      C2588   1.401       .  A
C2587      H2595   1.083       .  S
C2588      H2596   1.083       .  S
C2597      C2598   1.408       .  A
C2597      C2602   1.407       .  A
C2598      C2599   1.397       .  A
C2598      H2611   1.083       .  S
C2599      C2600   1.398       .  A
C2599      H2612   1.084       .  S
C2600      C2601   1.401       .  A
C2600      C2603   1.442       .  S
C2601      C2602   1.401       .  A
C2601      H2613   1.083       .  S
C2602      H2614   1.083       .  S
C2603      C2604   1.207   1_565  T
C2604      C2605   1.442       .  S
C2605      C2606   1.399       .  A
C2605      C2610   1.400       .  A
C2606      C2607   1.399       .  A
C2606      H2615   1.084       .  S
C2607      C2608   1.408       .  A
C2607      H2616   1.083       .  S
C2608      C2609   1.408       .  A
C2609      C2610   1.399       .  A
C2609      H2617   1.083       .  S
C2610      H2618   1.083       .  S
C2619      C2620   1.407       .  A
C2619      C2624   1.407       .  A
C2620      C2621   1.399       .  A
C2620      H2633   1.083       .  S
C2621      C2622   1.399       .  A
C2621      H2634   1.083       .  S
C2622      C2623   1.399       .  A
C2622      C2625   1.438       .  S
C2623      C2624   1.397       .  A
C2623      H2635   1.084       .  S
C2624      H2636   1.083       .  S
C2625      C2626   1.205   1_554  T
C2626      C2627   1.438       .  S
C2627      C2628   1.399       .  A
C2627      C2632   1.399       .  A
C2628      C2629   1.397       .  A
C2628      H2637   1.084       .  S
C2629      C2630   1.407       .  A
C2629      H2638   1.083       .  S
C2630      C2631   1.408       .  A
C2631      C2632   1.399       .  A
C2631      H2639   1.083       .  S
C2632      H2640   1.084       .  S
C2641      C2642   1.407       .  A
C2641      C2646   1.407       .  A
C2642      C2643   1.397       .  A
C2642      H2655   1.083       .  S
C2643      C2644   1.399       .  A
C2643      H2656   1.084       .  S
C2644      C2645   1.399       .  A
C2644      C2647   1.438       .  S
C2645      C2646   1.398       .  A
C2645      H2657   1.084       .  S
C2646      H2658   1.083       .  S
C2647      C2648   1.205       .  T
C2648      C2649   1.438       .  S
C2649      C2650   1.400       .  A
C2649      C2654   1.399       .  A
C2650      C2651   1.399       .  A
C2650      H2659   1.083       .  S
C2651      C2652   1.407       .  A
C2651      H2660   1.083       .  S
C2652      C2653   1.407       .  A
C2653      C2654   1.397       .  A
C2653      H2661   1.083       .  S
C2654      H2662   1.084       .  S
C2663      C2664   1.408       .  A
C2663      C2668   1.408       .  A
C2664      C2665   1.399       .  A
C2664      H2677   1.083       .  S
C2665      C2666   1.399       .  A
C2665      H2678   1.084       .  S
C2666      C2667   1.400       .  A
C2666      C2669   1.440       .  S
C2667      C2668   1.399       .  A
C2667      H2679   1.084       .  S
C2668      H2680   1.083       .  S
C2669      C2670   1.206       .  T
C2670      C2671   1.440       .  S
C2671      C2672   1.399       .  A
C2671      C2676   1.400       .  A
C2672      C2673   1.398       .  A
C2672      H2681   1.083       .  S
C2673      C2674   1.407       .  A
C2673      H2682   1.083       .  S
C2674      C2675   1.408       .  A
C2675      C2676   1.399       .  A
C2675      H2683   1.083       .  S
C2676      H2684   1.084       .  S
C2685      C2686   1.408       .  A
C2685      C2690   1.408       .  A
C2686      C2687   1.399       .  A
C2686      H2699   1.083       .  S
C2687      C2688   1.400       .  A
C2687      H2700   1.084       .  S
C2688      C2689   1.400       .  A
C2688      C2691   1.442       .  S
C2689      C2690   1.400       .  A
C2689      H2701   1.083       .  S
C2690      H2702   1.083       .  S
C2691      C2692   1.207       .  T
C2692      C2693   1.442       .  S
C2693      C2694   1.399       .  A
C2693      C2698   1.400       .  A
C2694      C2695   1.398       .  A
C2694      H2703   1.084       .  S
C2695      C2696   1.408       .  A
C2695      H2704   1.083       .  S
C2696      C2697   1.408       .  A
C2697      C2698   1.400       .  A
C2697      H2705   1.083       .  S
C2698      H2706   1.083       .  S
C2707      C2708   1.408       .  A
C2707      C2712   1.408       .  A
C2708      C2709   1.399       .  A
C2708      H2721   1.083       .  S
C2709      C2710   1.400       .  A
C2709      H2722   1.084       .  S
C2710      C2711   1.400       .  A
C2710      C2713   1.441       .  S
C2711      C2712   1.399       .  A
C2711      H2723   1.084       .  S
C2712      H2724   1.083       .  S
C2713      C2714   1.207   1_455  T
C2714      C2715   1.441       .  S
C2715      C2716   1.400       .  A
C2715      C2720   1.399       .  A
C2716      C2717   1.399       .  A
C2716      H2725   1.084       .  S
C2717      C2718   1.408       .  A
C2717      H2726   1.083       .  S
C2718      C2719   1.408       .  A
C2719      C2720   1.399       .  A
C2719      H2727   1.083       .  S
C2720      H2728   1.084       .  S
C2729      C2730   1.408       .  A
C2729      C2734   1.408       .  A
C2730      C2731   1.400       .  A
C2730      H2743   1.083       .  S
C2731      C2732   1.400       .  A
C2731      H2744   1.084       .  S
C2732      C2733   1.398       .  A
C2732      C2735   1.439       .  S
C2733      C2734   1.396       .  A
C2733      H2745   1.084       .  S
C2734      H2746   1.083       .  S
C2735      C2736   1.205   1_545  T
C2736      C2737   1.439       .  S
C2737      C2738   1.400       .  A
C2737      C2742   1.398       .  A
C2738      C2739   1.399       .  A
C2738      H2747   1.084       .  S
C2739      C2740   1.407       .  A
C2739      H2748   1.083       .  S
C2740      C2741   1.408       .  A
C2741      C2742   1.397       .  A
C2741      H2749   1.083       .  S
C2742      H2750   1.084       .  S
C2751      C2752   1.408       .  A
C2751      C2756   1.407       .  A
C2752      C2753   1.399       .  A
C2752      H2765   1.083       .  S
C2753      C2754   1.400       .  A
C2753      H2766   1.083       .  S
C2754      C2755   1.399       .  A
C2754      C2757   1.440       .  S
C2755      C2756   1.398       .  A
C2755      H2767   1.084       .  S
C2756      H2768   1.083       .  S
C2757      C2758   1.206       .  T
C2758      C2759   1.440       .  S
C2759      C2760   1.400       .  A
C2759      C2764   1.399       .  A
C2760      C2761   1.399       .  A
C2760      H2769   1.083       .  S
C2761      C2762   1.407       .  A
C2761      H2770   1.083       .  S
C2762      C2763   1.408       .  A
C2763      C2764   1.398       .  A
C2763      H2771   1.083       .  S
C2764      H2772   1.084       .  S
C2773      C2774   1.408       .  A
C2773      C2778   1.408       .  A
C2774      C2775   1.400       .  A
C2774      H2787   1.083       .  S
C2775      C2776   1.400       .  A
C2775      H2788   1.083       .  S
C2776      C2777   1.400       .  A
C2776      C2779   1.442       .  S
C2777      C2778   1.399       .  A
C2777      H2789   1.084       .  S
C2778      H2790   1.083       .  S
C2779      C2780   1.208       .  T
C2780      C2781   1.442       .  S
C2781      C2782   1.399       .  A
C2781      C2786   1.400       .  A
C2782      C2783   1.399       .  A
C2782      H2791   1.084       .  S
C2783      C2784   1.408       .  A
C2783      H2792   1.083       .  S
C2784      C2785   1.408       .  A
C2785      C2786   1.400       .  A
C2785      H2793   1.083       .  S
C2786      H2794   1.083       .  S
C2795      C2796   1.408       .  A
C2795      C2800   1.408       .  A
C2796      C2797   1.399       .  A
C2796      H2809   1.083       .  S
C2797      C2798   1.400       .  A
C2797      H2810   1.084       .  S
C2798      C2799   1.400       .  A
C2798      C2801   1.442       .  S
C2799      C2800   1.399       .  A
C2799      H2811   1.083       .  S
C2800      H2812   1.083       .  S
C2801      C2802   1.207       .  T
C2802      C2803   1.441       .  S
C2803      C2804   1.400       .  A
C2803      C2808   1.400       .  A
C2804      C2805   1.400       .  A
C2804      H2813   1.084       .  S
C2805      C2806   1.408       .  A
C2805      H2814   1.083       .  S
C2806      C2807   1.407       .  A
C2807      C2808   1.398       .  A
C2807      H2815   1.083       .  S
C2808      H2816   1.083       .  S
