geometry optimzed in LAMMPS
_audit_creation_date              2020-11-30 
_audit_creation_method            'lammps2cif' 
_symmetry_space_group_name_H-M    'P1' 
_symmetry_Int_Tables_number       1 
_symmetry_cell_setting            triclinic 
loop_ 
_symmetry_equiv_pos_as_xyz 
  x,y,z 
_cell_length_a                    39.82592303 
_cell_length_b                    42.40970426100782 
_cell_length_c                    45.36856835911342 
_cell_angle_alpha                 89.5955648129888 
_cell_angle_beta                  90.72090690742743 
_cell_angle_gamma                 90.26338934172999 
loop_ 
_atom_site_label 
_atom_site_type_symbol 
_atom_site_fract_x 
_atom_site_fract_y 
_atom_site_fract_z 
_atom_site_charge 
C1          C  0.78851228  0.24469305  0.12877481    -0.02400
C2          C  0.78842862  0.25831377  0.37753022    -0.02400
Fe3        Fe  0.80359978  0.38071226  0.24481432     1.65800
Fe4        Fe  0.84774400  0.44849288  0.24541860     1.73200
Fe5        Fe  0.89006048  0.37844519  0.24736682     1.54400
O6          O  0.87425379  0.35105802  0.28290978    -0.81600
O7          O  0.88768789  0.45066512  0.21809722    -0.79900
O8          O  0.81882628  0.34741231  0.27540023    -0.84100
O9          O  0.81836946  0.35347278  0.21086415    -0.79000
O10         O  0.91300549  0.40920846  0.27753463    -0.80800
O11         O  0.81754169  0.45150353  0.20856873    -0.83500
C12         C  0.84521844  0.33980878  0.20380166     0.97300
C13         C  0.84557773  0.33972827  0.28910648     1.04700
O14         O  0.84724922  0.40242500  0.24593155    -1.12500
O15         O  0.80788308  0.45304813  0.27354470    -0.74900
O16         O  0.78409491  0.40597004  0.27908825    -0.78400
O17         O  0.87322596  0.34456428  0.21693966    -0.79100
C18         C  0.78729782  0.43466451  0.28611166     0.96200
O19         O  0.78249109  0.41100726  0.21349993    -0.77100
O20         O  0.87845685  0.45008912  0.28144129    -0.82200
C21         C  0.90869995  0.43276034  0.20603659     0.98800
C22         C  0.90455675  0.43513759  0.28930522     1.04700
O23         O  0.91072811  0.40357802  0.21233859    -0.77900
C24         C  0.79183324  0.43610949  0.20041554     1.03000
Fe25       Fe  0.79950006  0.12295871  0.99215270     1.65800
Fe26       Fe  0.84043846  0.05442836  0.50034023     1.73200
Fe27       Fe  0.88375491  0.12403805  0.50057979     1.54400
O28         O  0.86842515  0.16042088  0.47200614    -0.81600
O29         O  0.87112712  0.05241767  0.03623177    -0.79900
O30         O  0.81633755  0.14879843  0.45753026    -0.84100
O31         O  0.81606114  0.15789675  0.02014853    -0.79000
O32         O  0.90358574  0.09948480  0.46507988    -0.80800
O33         O  0.79992418  0.05285182  0.02840974    -0.83500
C34         C  0.83879903  0.15921662  0.04000625     0.97300
C35         C  0.84293863  0.16494124  0.45541027     1.04700
O36         O  0.84081334  0.10032765  0.49757508    -1.12500
O37         O  0.80716034  0.04857907  0.46565567    -0.74900
O38         O  0.77778924  0.09286476  0.46152930    -0.78400
O39         O  0.86708017  0.14565233  0.03744442    -0.79100
C40         C  0.78384626  0.06485157  0.45409271     0.96200
O41         O  0.77722302  0.10094854  0.02795165    -0.77100
O42         O  0.87937184  0.05214703  0.47101789    -0.82200
C43         C  0.89969672  0.06481329  0.04068542     0.98800
C44         C  0.90080948  0.07020761  0.45879281     1.04700
O45         O  0.90859139  0.08980350  0.02736171    -0.77900
C46         C  0.77929857  0.07300774  0.03808488     1.03000
C47         C  0.98837549  0.50566793  0.37439446    -0.02400
Fe48       Fe  0.18194812  0.38365530  0.99391190     1.65800
Fe49       Fe  0.13781082  0.44927808  0.49676847     1.73200
Fe50       Fe  0.09738987  0.37815611  0.49519446     1.54400
O51         O  0.11777531  0.34537915  0.46475731    -0.81600
O52         O  0.10741658  0.44813228  0.03266354    -0.79900
O53         O  0.16905038  0.36363071  0.45388834    -0.84100
O54         O  0.16478643  0.34350824  0.01390317    -0.79000
O55         O  0.07601523  0.40359749  0.45995295    -0.80800
O56         O  0.17846913  0.45229659  0.02514080    -0.83500
C57         C  0.14308423  0.33909784  0.03357577     0.97300
C58         C  0.14429400  0.34519389  0.44889856     1.04700
O59         O  0.13872589  0.40378608  0.49494131    -1.12500
O60         O  0.16887171  0.45555456  0.46116188    -0.74900
O61         O  0.20673656  0.41950093  0.47275971    -0.78400
O62         O  0.11464375  0.35240722  0.03183016    -0.79100
C63         C  0.19841240  0.44473895  0.45964678     0.96200
O64         O  0.19654837  0.40337645  0.03428997    -0.77100
O65         O  0.09704241  0.45136359  0.46923418    -0.82200
C66         C  0.08087227  0.43295963  0.03859064     0.98800
C67         C  0.07646838  0.43341868  0.45579272     1.04700
O68         O  0.07238968  0.40789340  0.02491456    -0.77900
C69         C  0.19684424  0.43297211  0.03941008     1.03000
Fe70       Fe  0.18446490  0.11739709  0.24651900     1.65800
Fe71       Fe  0.13726503  0.05220232  0.24855957     1.73200
Fe72       Fe  0.09865934  0.12390922  0.24653907     1.54400
O73         O  0.11974494  0.15667220  0.27699898    -0.81600
O74         O  0.10652121  0.05171969  0.21246854    -0.79900
O75         O  0.17358498  0.14287849  0.28388604    -0.84100
O76         O  0.16915425  0.15401750  0.21987367    -0.79000
O77         O  0.07720318  0.10007395  0.28195566    -0.80800
O78         O  0.17765900  0.04561659  0.22119460    -0.83500
C79         C  0.14294727  0.16293706  0.20611404     0.97300
C80         C  0.14788408  0.15876687  0.29098297     1.04700
O81         O  0.13986609  0.09796856  0.24723392    -1.12500
O82         O  0.16806013  0.04909130  0.28496296    -0.74900
O83         O  0.20767976  0.08353314  0.27302758    -0.78400
O84         O  0.11432286  0.15070255  0.21052537    -0.79100
C85         C  0.19751925  0.06006303  0.28800657     0.96200
O86         O  0.19810625  0.09281107  0.20911292    -0.77100
O87         O  0.09681953  0.05152833  0.27609993    -0.82200
C88         C  0.08017036  0.06683347  0.20559188     0.98800
C89         C  0.07751590  0.07089270  0.28849059     1.04700
O90         O  0.07318999  0.09353592  0.21690840    -0.77900
C91         C  0.19684787  0.06306490  0.20599009     1.03000
C92         C  0.20138701  0.24932967  0.37507245    -0.02400
C93         C  0.19871191  0.25092884  0.12176342    -0.02400
C94         C  0.99232288  0.50053080  0.12037948    -0.02400
Fe95       Fe  0.30282621  0.36656216  0.24858500     1.65800
Fe96       Fe  0.34997823  0.30075171  0.24455941     1.73200
Fe97       Fe  0.38914993  0.37304130  0.25219913     1.54400
O98         O  0.37274830  0.40447814  0.21936005    -0.81600
O99         O  0.38514749  0.29733712  0.27750522    -0.79900
O100        O  0.31697817  0.39785872  0.21655602    -0.84100
O101        O  0.31553518  0.39653647  0.28134324    -0.79000
O102        O  0.41435315  0.34817608  0.21932648    -0.80800
O103        O  0.31354872  0.29208592  0.27555713    -0.83500
C104        C  0.34099071  0.40803531  0.29420880     0.97300
C105        C  0.34414258  0.41009054  0.20760316     1.04700
O106        O  0.34746778  0.34683223  0.24855091    -1.12500
O107        O  0.31573990  0.29847339  0.21055079    -0.74900
O108        O  0.28260674  0.33980120  0.21532032    -0.78400
O109        O  0.37068656  0.40179587  0.28609201    -0.79100
C110        C  0.29076647  0.31476964  0.20241195     0.96200
O111        O  0.28462374  0.33654911  0.28086519    -0.77100
O112        O  0.38607844  0.30322310  0.21319298    -0.82200
C113        C  0.40623175  0.31474695  0.29090384     0.98800
C114        C  0.40957235  0.32192357  0.20640821     1.04700
O115        O  0.40989843  0.34389790  0.28476603    -0.77900
C116        C  0.29082318  0.30808403  0.28772397     1.03000
Fe117      Fe  0.30392344  0.12790993  0.50226593     1.65800
Fe118      Fe  0.34806531  0.19734386  0.01062569     1.73200
Fe119      Fe  0.39138643  0.12753031  0.00474605     1.54400
O120        O  0.37601457  0.09684281  0.03771569    -0.81600
O121        O  0.38522420  0.20244060  0.48010938    -0.79900
O122        O  0.31986531  0.09645051  0.03372461    -0.84100
O123        O  0.31971980  0.10149932  0.46799583    -0.79000
O124        O  0.41480671  0.15507468  0.03699319    -0.80800
O125        O  0.31263665  0.20369155  0.47640505    -0.83500
C126        C  0.34679675  0.09002298  0.45882489     0.97300
C127        C  0.34716363  0.08769089  0.04593582     1.04700
O128        O  0.34818497  0.15120390  0.00582183    -1.12500
O129        O  0.31048335  0.19708988  0.04180057    -0.74900
O130        O  0.28167520  0.15252748  0.03534232    -0.78400
O131        O  0.37495496  0.09548366  0.47133031    -0.79100
C132        C  0.28631087  0.17867936  0.04789901     0.96200
O133        O  0.28405785  0.15872646  0.47086154    -0.77100
O134        O  0.38256553  0.19686833  0.04493071    -0.82200
C135        C  0.40614712  0.18507222  0.46684822     0.98800
C136        C  0.40841915  0.18049220  0.05044705     1.04700
O137        O  0.40958192  0.15584153  0.47232063    -0.77900
C138        C  0.28989450  0.18726983  0.46387795     1.03000
C139        C  0.29119322  0.00346033  0.37482590    -0.02400
C140        C  0.28855494  0.99935156  0.12489161    -0.02400
C141        C  0.49090207  0.24596727  0.37712953    -0.02400
C142        C  0.69947043  0.49324131  0.37395298    -0.02400
Fe143      Fe  0.68508399  0.13166922  0.26156371     1.65800
Fe144      Fe  0.63827562  0.19712607  0.25280404     1.73200
Fe145      Fe  0.59982519  0.12516640  0.25367189     1.54400
O146        O  0.61920177  0.09865737  0.21867452    -0.81600
O147        O  0.59564501  0.19830471  0.27753816    -0.79900
O148        O  0.67310233  0.09629540  0.23238609    -0.84100
O149        O  0.66889406  0.10561801  0.29718261    -0.79000
O150        O  0.57576418  0.15468673  0.22327409    -0.80800
O151        O  0.66631159  0.20440872  0.29083072    -0.83500
C152        C  0.64313186  0.08835127  0.30013948     0.97300
C153        C  0.64873905  0.08749265  0.21597883     1.04700
O154        O  0.64110693  0.15131379  0.25603666    -1.12500
O155        O  0.68068804  0.20222757  0.22805178    -0.74900
O156        O  0.70680037  0.15616807  0.22690862    -0.78400
O157        O  0.61695377  0.09145787  0.28408231    -0.79100
C158        C  0.70407547  0.18482803  0.21895390     0.96200
O159        O  0.70270302  0.16469635  0.29100822    -0.77100
O160        O  0.61049309  0.19479984  0.21420387    -0.82200
C161        C  0.57630211  0.17986079  0.29151834     0.98800
C162        C  0.58371307  0.17945768  0.20903891     1.04700
O163        O  0.57727159  0.15000276  0.28807691    -0.77900
C164        C  0.69258816  0.19087541  0.30071803     1.03000
C165        C  0.69969485  0.00316285  0.12311751    -0.02400
Fe166      Fe  0.68105388  0.36482435  0.50504777     1.65800
Fe167      Fe  0.63454777  0.30013633  0.00314883     1.73200
Fe168      Fe  0.59868733  0.37300339  0.00078392     1.54400
O169        O  0.62117102  0.40760692  0.02842411    -0.81600
O170        O  0.60316372  0.30156940  0.46680112    -0.79900
O171        O  0.66883535  0.38505037  0.04329496    -0.84100
O172        O  0.66628259  0.40384030  0.48082011    -0.79000
O173        O  0.57841376  0.35169641  0.03751737    -0.80800
O174        O  0.67411235  0.29597767  0.47477476    -0.83500
C175        C  0.64397042  0.40717580  0.46083149     0.97300
C176        C  0.64762637  0.40713424  0.04469555     1.04700
O177        O  0.63835711  0.34545869  0.00285956    -1.12500
O178        O  0.66462035  0.29408224  0.03994815    -0.74900
O179        O  0.70487607  0.32835237  0.03005781    -0.78400
O180        O  0.61487993  0.39516868  0.46333389    -0.79100
C181        C  0.69401376  0.30458736  0.04414496     0.96200
O182        O  0.69589482  0.34374174  0.46673926    -0.77100
O183        O  0.59436166  0.30146403  0.03145967    -0.82200
C184        C  0.57702577  0.31706271  0.46019557     0.98800
C185        C  0.57777543  0.32263405  0.04461555     1.04700
O186        O  0.56940592  0.34249307  0.47333871    -0.77900
C187        C  0.69388323  0.31452525  0.46094610     1.03000
C188        C  0.49842726  0.25275512  0.12841111    -0.02400
C189        C  0.55762452  0.31213367  0.06957726    -0.05400
C190        C  0.57391799  0.29717909  0.09319387    -0.32800
C191        C  0.55573787  0.28065898  0.11449058     0.36400
C192        C  0.52049543  0.27631116  0.11065128    -0.05800
C193        C  0.50419593  0.29556793  0.08919303    -0.32700
C194        C  0.52250467  0.31295423  0.06851859     0.36300
H195        H  0.60108697  0.29789451  0.09489512     0.16700
O196        O  0.57294727  0.26908578  0.13856478    -0.60200
H197        H  0.47711458  0.29484453  0.08678676     0.16700
O198        O  0.50592483  0.32861179  0.04617204    -0.60300
H199        H  0.50402629  0.31322994  0.02985713     0.43700
H200        H  0.58106467  0.28779429  0.14960068     0.43600
C201        C  0.68267404  0.48247175  0.10117524    -0.05400
C202        C  0.70307143  0.46757727  0.08015858    -0.32800
C203        C  0.69105662  0.44444759  0.06152145     0.36400
C204        C  0.65757706  0.43434079  0.06317403    -0.05800
C205        C  0.63607948  0.44918458  0.08318172    -0.32700
C206        C  0.64841430  0.47300571  0.10241170     0.36300
H207        H  0.72928409  0.47414828  0.07812196     0.16700
O208        O  0.71241500  0.43219543  0.04102715    -0.60200
H209        H  0.61016502  0.44155498  0.08468570     0.16700
O210        O  0.62711090  0.48594639  0.12244790    -0.60300
H211        H  0.62159822  0.46874650  0.13651556     0.43700
H212        H  0.72733899  0.41759314  0.05218962     0.43600
C213        C  0.51864356  0.22974423  0.14894908    -0.05400
C214        C  0.51027889  0.22552447  0.17894735    -0.32800
C215        C  0.53062490  0.20791825  0.19819531     0.36400
C216        C  0.55940800  0.19293898  0.18777440    -0.05800
C217        C  0.56593013  0.19361809  0.15759165    -0.32700
C218        C  0.54495172  0.21052108  0.13804637     0.36300
H219        H  0.48822902  0.23628785  0.18808745     0.16700
O220        O  0.52279188  0.20645070  0.22753521    -0.60200
H221        H  0.58765389  0.18147950  0.14918424     0.16700
O222        O  0.55249281  0.21045437  0.10867645    -0.60300
H223        H  0.54450845  0.18973239  0.10132420     0.43700
H224        H  0.53541260  0.22408072  0.23676646     0.43600
C225        C  0.65680777  0.06334357  0.19322350    -0.05400
C226        C  0.64176288  0.06304868  0.16492302    -0.32800
C227        C  0.65424693  0.04348662  0.14222329     0.36400
C228        C  0.68159658  0.02267577  0.14770517    -0.05800
C229        C  0.69645065  0.02443176  0.17626301    -0.32700
C230        C  0.68380224  0.04283083  0.19867276     0.36300
H231        H  0.62153176  0.07925546  0.15984071     0.16700
O232        O  0.64033595  0.04595328  0.11454012    -0.60200
H233        H  0.71956453  0.01263449  0.18200884     0.16700
O234        O  0.69987284  0.04200707  0.22566171    -0.60300
H235        H  0.69759254  0.01999195  0.23293907     0.43700
H236        H  0.64921512  0.06601538  0.10632856     0.43600
C237        C  0.64653196  0.06062036  0.31969445    -0.05400
C238        C  0.64480115  0.06263565  0.35044313    -0.32800
C239        C  0.65667811  0.03776896  0.36856614     0.36400
C240        C  0.67384959  0.01163535  0.35608019    -0.05800
C241        C  0.67237501  0.00945069  0.32488544    -0.32700
C242        C  0.65813989  0.03286623  0.30720557     0.36300
H243        H  0.63538504  0.08389926  0.36045671     0.16700
O244        O  0.65422225  0.04084075  0.39851357    -0.60200
H245        H  0.68370487  0.99078308  0.31283711     0.16700
O246        O  0.65912531  0.02984183  0.27717181    -0.60300
H247        H  0.63744937  0.01982023  0.27157089     0.43700
H248        H  0.63106585  0.03398958  0.40324643     0.43600
C249        C  0.68163384  0.46662871  0.39152326    -0.05400
C250        C  0.64682086  0.46697943  0.39758963    -0.32800
C251        C  0.63310212  0.44666047  0.41912190     0.36400
C252        C  0.65399341  0.42514026  0.43428393    -0.05800
C253        C  0.68741725  0.42225394  0.42577541    -0.32700
C254        C  0.70141924  0.44258498  0.40520363     0.36300
H255        H  0.63055404  0.48433825  0.38739553     0.16700
O256        O  0.60018566  0.45000886  0.42692757    -0.60200
H257        H  0.70375899  0.40531805  0.43669620     0.16700
O258        O  0.73556443  0.44130178  0.40157131    -0.60300
H259        H  0.73960044  0.42187690  0.39010272     0.43700
H260        H  0.58745585  0.43553034  0.41380735     0.43600
C261        C  0.51136176  0.22545782  0.35514527    -0.05400
C262        C  0.53069776  0.24264396  0.33463884    -0.32800
C263        C  0.55060731  0.22823545  0.31385879     0.36400
C264        C  0.55258204  0.19500547  0.31249937    -0.05800
C265        C  0.53195036  0.17723649  0.33140926    -0.32700
C266        C  0.51102661  0.19199451  0.35228191     0.36300
H267        H  0.53114658  0.26817744  0.33528945     0.16700
O268        O  0.56869632  0.24743633  0.29538481    -0.60200
H269        H  0.53175411  0.15175975  0.32989191     0.16700
O270        O  0.48864565  0.17369409  0.36762166    -0.60300
H271        H  0.50182407  0.15633360  0.37678474     0.43700
H272        H  0.55239612  0.25484529  0.28017895     0.43600
C273        C  0.51485646  0.26678033  0.39674525    -0.05400
C274        C  0.50055605  0.28962889  0.41550961    -0.32800
C275        C  0.52023035  0.30778015  0.43509790     0.36400
C276        C  0.55517250  0.30334768  0.43669498    -0.05800
C277        C  0.56964495  0.28137552  0.41785250    -0.32700
C278        C  0.55030048  0.26230458  0.39937085     0.36300
H279        H  0.47362469  0.29306312  0.41529915     0.16700
O280        O  0.50473132  0.32820712  0.45379383    -0.60200
H281        H  0.59647589  0.27718785  0.41875903     0.16700
O282        O  0.56677441  0.23821037  0.38574179    -0.60300
H283        H  0.57215127  0.22256236  0.40142739     0.43700
H284        H  0.50187539  0.34798547  0.44226302     0.43600
C285        C  0.46836565  0.22789403  0.39974168    -0.05400
C286        C  0.43409222  0.23621181  0.40324696    -0.32800
C287        C  0.41385641  0.22214270  0.42446354     0.36400
C288        C  0.42730847  0.19965074  0.44392868    -0.05800
C289        C  0.46146662  0.19210142  0.44208266    -0.32700
C290        C  0.48212956  0.20647537  0.42080910     0.36300
H291        H  0.42235834  0.25468704  0.39036135     0.16700
O292        O  0.38083928  0.23102500  0.42619170    -0.60200
H293        H  0.47248903  0.17575981  0.45787648     0.16700
O294        O  0.51608077  0.20091634  0.42174882    -0.60300
H295        H  0.51897280  0.17771398  0.42260641     0.43700
H296        H  0.36839030  0.21647529  0.41292508     0.43600
C297        C  0.47774566  0.23019160  0.10755172    -0.05400
C298        C  0.45085434  0.21244225  0.11960441    -0.32800
C299        C  0.42800966  0.19583954  0.10156396     0.36400
C300        C  0.43366298  0.19356695  0.07121521    -0.05800
C301        C  0.46284335  0.20687187  0.05964094    -0.32700
C302        C  0.48477407  0.22505051  0.07714131     0.36300
H303        H  0.44588114  0.21366690  0.14298564     0.16700
O304        O  0.39960769  0.18300126  0.11361334    -0.60200
H305        H  0.46809394  0.20418006  0.03640045     0.16700
O306        O  0.51386145  0.23578249  0.06449057    -0.60300
H307        H  0.50694763  0.24855640  0.04705094     0.43700
H308        H  0.40685726  0.16265334  0.12244753     0.43600
C309        C  0.31490654  0.02898049  0.38881573    -0.05400
C310        C  0.34043885  0.01879131  0.40882100    -0.32800
C311        C  0.35399269  0.03893183  0.43064304     0.36400
C312        C  0.34356164  0.07047617  0.43190575    -0.05800
C313        C  0.32189482  0.08178664  0.40988565    -0.32700
C314        C  0.30663218  0.06174650  0.38939142     0.36300
H315        H  0.34725551  0.99414039  0.40968030     0.16700
O316        O  0.37475523  0.02675800  0.45216925    -0.60200
H317        H  0.31341704  0.10601218  0.41075051     0.16700
O318        O  0.27994556  0.07397314  0.37378486    -0.60300
H319        H  0.28935063  0.09080677  0.36097765     0.43700
H320        H  0.35953580  0.01815075  0.46741792     0.43600
C321        C  0.31292078  0.02286861  0.10941291    -0.05400
C322        C  0.31371514  0.05535228  0.11610133    -0.32800
C323        C  0.32813222  0.07703348  0.09668407     0.36400
C324        C  0.34400891  0.06635506  0.07123725    -0.05800
C325        C  0.34965305  0.03414599  0.06777293    -0.32700
C326        C  0.33508194  0.01235603  0.08717748     0.36300
H327        H  0.30139564  0.06456192  0.13526070     0.16700
O328        O  0.32388860  0.10870156  0.10129802    -0.60200
H329        H  0.36267346  0.02572239  0.04855201     0.16700
O330        O  0.33599655  0.47936591  0.08184006    -0.60300
H331        H  0.35792472  0.47433514  0.09129281     0.43700
H332        H  0.34308232  0.11507378  0.11408910     0.43600
C333        C  0.43243736  0.31112538  0.18307216    -0.05400
C334        C  0.46727945  0.31256602  0.18715508    -0.32800
C335        C  0.48871372  0.29501564  0.16912810     0.36400
C336        C  0.47535737  0.27530342  0.14642990    -0.05800
C337        C  0.44082130  0.27864108  0.13981323    -0.32700
C338        C  0.41946830  0.29490098  0.15851184     0.36300
H339        H  0.47785635  0.32561482  0.20552818     0.16700
O340        O  0.52267596  0.29668168  0.17431892    -0.60200
H341        H  0.42955631  0.26819802  0.12042527     0.16700
O342        O  0.38559649  0.29424387  0.15287371    -0.60300
H343        H  0.37849845  0.27250239  0.15813880     0.43700
H344        H  0.52646515  0.28770056  0.19432734     0.43600
C345        C  0.42749441  0.29919274  0.31390437    -0.05400
C346        C  0.42436508  0.26644212  0.31760557    -0.32800
C347        C  0.44458908  0.24986955  0.33743020     0.36400
C348        C  0.46829490  0.26581513  0.35566065    -0.05800
C349        C  0.47185311  0.29879163  0.35151227    -0.32700
C350        C  0.45157592  0.31538260  0.33116884     0.36300
H351        H  0.40639349  0.25301813  0.30462556     0.16700
O352        O  0.44022106  0.21780091  0.33956710    -0.60200
H353        H  0.49097614  0.31202941  0.36316237     0.16700
O354        O  0.45625883  0.34725552  0.32789781    -0.60300
H355        H  0.44110494  0.35699869  0.34239365     0.43700
H356        H  0.44945649  0.20908179  0.32113799     0.43600
C357        C  0.33351196  0.42917126  0.31943931    -0.05400
C358        C  0.30198324  0.42537662  0.33234396    -0.32800
C359        C  0.28846663  0.44822619  0.35037053     0.36400
C360        C  0.30767662  0.47500367  0.35908240    -0.05800
C361        C  0.34082747  0.47744440  0.34815584    -0.32700
C362        C  0.35358765  0.45496670  0.32828026     0.36300
H363        H  0.28619160  0.40533631  0.32676862     0.16700
O364        O  0.25588056  0.44409887  0.35922781    -0.60200
H365        H  0.35618756  0.49783118  0.35321176     0.16700
O366        O  0.38447461  0.45980839  0.31602298    -0.60300
H367        H  0.40084628  0.45191954  0.33094739     0.43700
H368        H  0.24182694  0.44586665  0.34107860     0.43600
C369        C  0.30993956  0.47416080  0.14224836    -0.05400
C370        C  0.31103490  0.44159917  0.13605461    -0.32800
C371        C  0.32516900  0.42032665  0.15625043     0.36400
C372        C  0.34094198  0.43141470  0.18203433    -0.05800
C373        C  0.34631823  0.46380133  0.18527237    -0.32700
C374        C  0.33146739  0.48525634  0.16530667     0.36300
H375        H  0.29929082  0.43195214  0.11650844     0.16700
O376        O  0.32205634  0.38852783  0.15135363    -0.60200
H377        H  0.35937696  0.47261268  0.20464612     0.16700
O378        O  0.33580357  0.51701120  0.16985872    -0.60300
H379        H  0.32538067  0.52158977  0.18909295     0.43700
H380        H  0.29884262  0.38297165  0.15721870     0.43600
C381        C  0.26953268  0.30337991  0.17780047    -0.05400
C382        C  0.23609418  0.31327630  0.17514615    -0.32800
C383        C  0.21380527  0.29811308  0.15575123     0.36400
C384        C  0.22470272  0.27186192  0.13899805    -0.05800
C385        C  0.25967610  0.26671669  0.13795685    -0.32700
C386        C  0.28162939  0.28128294  0.15771427     0.36300
H387        H  0.22655751  0.33153083  0.18933300     0.16700
O388        O  0.18088095  0.30765829  0.15467308    -0.60200
H389        H  0.27081437  0.25137758  0.12204224     0.16700
O390        O  0.31504326  0.27388388  0.15693365    -0.60300
H391        H  0.31691287  0.25289615  0.16659924     0.43700
H392        H  0.17140859  0.30249533  0.17424430     0.43600
C393        C  0.21622025  0.22484071  0.10311747    -0.05400
C394        C  0.21116856  0.22316389  0.07219106    -0.32800
C395        C  0.23328653  0.20690677  0.05445927     0.36400
C396        C  0.25992749  0.19018672  0.06727524    -0.05800
C397        C  0.26103567  0.18586943  0.09791864    -0.32700
C398        C  0.23840866  0.20220494  0.11594878     0.36300
H399        H  0.19130350  0.23596757  0.06102237     0.16700
O400        O  0.23007744  0.20940089  0.02437622    -0.60200
H401        H  0.28015665  0.17100510  0.10789070     0.16700
O402        O  0.23973191  0.19782398  0.14599610    -0.60300
H403        H  0.26315165  0.20251640  0.15230992     0.43700
H404        H  0.21626993  0.19096674  0.01836349     0.43600
C405        C  0.22472579  0.23365019  0.39943904    -0.05400
C406        C  0.24498569  0.20762400  0.39161009    -0.32800
C407        C  0.26512341  0.19147268  0.41241007     0.36400
C408        C  0.26831224  0.20277697  0.44129219    -0.05800
C409        C  0.25130134  0.23017871  0.44879208    -0.32700
C410        C  0.23034354  0.24595694  0.42848989     0.36300
H411        H  0.24442260  0.19903416  0.36918885     0.16700
O412        O  0.28253894  0.16530934  0.40395278    -0.60200
H413        H  0.25446630  0.23976134  0.47075236     0.16700
O414        O  0.21685028  0.27398150  0.43742154    -0.60300
H415        H  0.23603814  0.28811918  0.44222479     0.43700
H416        H  0.26638051  0.14755578  0.40576550     0.43600
C417        C  0.22695450  0.26402073  0.35254685    -0.05400
C418        C  0.23099857  0.25116615  0.32397337    -0.32800
C419        C  0.25157365  0.26538767  0.30298594     0.36400
C420        C  0.27011124  0.29240918  0.31015179    -0.05800
C421        C  0.26956043  0.30363039  0.33901642    -0.32700
C422        C  0.24913382  0.28920887  0.36034815     0.36300
H423        H  0.21866453  0.22962728  0.31730303     0.16700
O424        O  0.25238466  0.25330436  0.27501931    -0.60200
H425        H  0.28533185  0.32347396  0.34517523     0.16700
O426        O  0.25132017  0.29970710  0.38883414    -0.60300
H427        H  0.24595556  0.32252707  0.38817157     0.43700
H428        H  0.26903356  0.23600182  0.27602292     0.43600
C429        C  0.26645487  0.01737829  0.35110806    -0.05400
C430        C  0.23143307  0.01165457  0.35210148    -0.32800
C431        C  0.20912522  0.02506468  0.33185473     0.36400
C432        C  0.22101047  0.04473507  0.30923253    -0.05800
C433        C  0.25589034  0.04840199  0.30612647    -0.32700
C434        C  0.27851396  0.03429539  0.32621100     0.36300
H435        H  0.21912530  0.49355928  0.36962968     0.16700
O436        O  0.17550442  0.01898285  0.33486179    -0.60200
H437        H  0.26579211  0.06204378  0.28789361     0.16700
O438        O  0.31239109  0.03760050  0.32169858    -0.60300
H439        H  0.31739890  0.06043097  0.32350446     0.43700
H440        H  0.17166894  0.99835270  0.32518223     0.43600
C441        C  0.21953821  0.04730660  0.18532828    -0.05400
C442        C  0.22097521  0.05645921  0.15569795    -0.32800
C443        C  0.24192147  0.04056378  0.13597512     0.36400
C444        C  0.26369846  0.01610554  0.14617601    -0.05800
C445        C  0.25982484  0.00595423  0.17574881    -0.32700
C446        C  0.23859351  0.02140080  0.19506919     0.36300
H447        H  0.20515126  0.07543589  0.14761147     0.16700
O448        O  0.23561951  0.54481743  0.10759448    -0.60200
H449        H  0.27255412  0.98538744  0.18435225     0.16700
O450        O  0.23653608  0.01074731  0.22363899    -0.60300
H451        H  0.25336236  0.02330954  0.23485600     0.43700
H452        H  0.24127258  0.56754551  0.10572540     0.43600
C453        C  0.01321368  0.01878447  0.14378979    -0.05400
C454        C  0.03534191  0.00248059  0.16308427    -0.32800
C455        C  0.05690583  0.01783873  0.18249673     0.36400
C456        C  0.05663193  0.05098345  0.18456691    -0.05800
C457        C  0.03323544  0.06779855  0.16727111    -0.32700
C458        C  0.01159416  0.05222735  0.14703609     0.36300
H459        H  0.03673877  0.47838737  0.15973275     0.16700
O460        O  0.07730108  0.99972093  0.20033453    -0.60200
H461        H  0.03154215  0.09315512  0.16949348     0.16700
O462        O  0.98722165  0.06973097  0.13308675    -0.60300
H463        H  0.99931785  0.08549496  0.12087193     0.43700
H464        H  0.09637596  0.99356444  0.18777899     0.43600
C465        C  0.17545465  0.23311027  0.14411394    -0.05400
C466        C  0.18112994  0.23561948  0.17500022    -0.32800
C467        C  0.16670630  0.21514764  0.19516501     0.36400
C468        C  0.14732092  0.18965884  0.18544359    -0.05800
C469        C  0.13864178  0.18777336  0.15541947    -0.32700
C470        C  0.15224251  0.20941212  0.13481262     0.36300
H471        H  0.19906181  0.25154508  0.18469845     0.16700
O472        O  0.17471781  0.21841528  0.22453380    -0.60200
H473        H  0.12345223  0.16822283  0.14760214     0.16700
O474        O  0.14472726  0.20565120  0.10544381    -0.60300
H475        H  0.15609458  0.18594386  0.09956761     0.43700
H476        H  0.15690221  0.23202198  0.23259329     0.43600
C477        C  0.15203394  0.18093326  0.31629476    -0.05400
C478        C  0.14579027  0.21326689  0.31272957    -0.32800
C479        C  0.15785909  0.23526302  0.33359301     0.36400
C480        C  0.17761763  0.22521672  0.35837923    -0.05800
C481        C  0.17749856  0.19245643  0.36443077    -0.32700
C482        C  0.16655700  0.17059067  0.34311876     0.36300
H483        H  0.13401132  0.22180350  0.29256824     0.16700
O484        O  0.15435010  0.26674057  0.32727074    -0.60200
H485        H  0.18776675  0.18319757  0.38482715     0.16700
O486        O  0.17086463  0.13897496  0.34846091    -0.60300
H487        H  0.19475970  0.13476112  0.34406790     0.43700
H488        H  0.13204854  0.27247439  0.33503003     0.43600
C489        C  0.22044793  0.44701415  0.06106741    -0.05400
C490        C  0.21989650  0.43859260  0.09092604    -0.32800
C491        C  0.23979822  0.45497538  0.11179106     0.36400
C492        C  0.26211137  0.47954740  0.10277182    -0.05800
C493        C  0.26030435  0.48878088  0.07274184    -0.32700
C494        C  0.24040210  0.47270063  0.05224911     0.36300
H495        H  0.20310366  0.42005720  0.09829037     0.16700
O496        O  0.23666499  0.44741013  0.14111789    -0.60200
H497        H  0.27713055  0.01115476  0.06383045     0.16700
O498        O  0.24072679  0.48232436  0.02327370    -0.60300
H499        H  0.22794745  0.00252432  0.02131070     0.43700
H500        H  0.24300525  0.42489116  0.14307125     0.43600
C501        C  0.22456348  0.46149829  0.44261170    -0.05400
C502        C  0.25408689  0.44545352  0.43536665    -0.32800
C503        C  0.27802101  0.45937052  0.41713431     0.36400
C504        C  0.27145518  0.48913525  0.40390834    -0.05800
C505        C  0.24627964  0.50760364  0.41703494    -0.32700
C506        C  0.22191430  0.49360629  0.43493952     0.36300
H507        H  0.25845615  0.42162771  0.44323421     0.16700
O508        O  0.30700657  0.44315162  0.41180807    -0.60200
H509        H  0.24279385  0.53192224  0.41036808     0.16700
O510        O  0.19555408  0.51142416  0.44442211    -0.60300
H511        H  0.17934906  0.51191832  0.42764089     0.43700
H512        H  0.32140434  0.44646955  0.42951623     0.43600
C513        C  0.05886020  0.44668378  0.06144347    -0.05400
C514        C  0.02420164  0.44049815  0.06163922    -0.32800
C515        C  0.00263282  0.45702960  0.08050060     0.36400
C516        C  0.01548798  0.48050409  0.09995915    -0.05800
C517        C  0.05034571  0.48700299  0.09833472    -0.32700
C518        C  0.07175779  0.46966992  0.08081278     0.36300
H519        H  0.01348014  0.42360049  0.04635364     0.16700
O520        O  0.96878606  0.45116600  0.07859465    -0.60200
H521        H  0.06082004  0.00421414  0.11245692     0.16700
O522        O  0.10546737  0.47652907  0.08214930    -0.60300
H523        H  0.11512024  0.46099151  0.09629185     0.43700
H524        H  0.96573166  0.42876795  0.08445308     0.43600
C525        C  0.14838467  0.32154221  0.42496170    -0.05400
C526        C  0.14109258  0.28948480  0.42987802    -0.32800
C527        C  0.15498160  0.26596918  0.41179251     0.36400
C528        C  0.17742752  0.27440576  0.38883242    -0.05800
C529        C  0.17822694  0.30662105  0.38059024    -0.32700
C530        C  0.16495552  0.32993180  0.39881572     0.36300
H531        H  0.12725316  0.28241434  0.44925496     0.16700
O532        O  0.14928132  0.23480426  0.41853766    -0.60200
H533        H  0.19077263  0.31437841  0.36085271     0.16700
O534        O  0.17003771  0.36105533  0.39168228    -0.60300
H535        H  0.14933281  0.36760779  0.38097347     0.43700
H536        H  0.16125922  0.23081093  0.43748462     0.43600
C537        C  0.18118994  0.27484753  0.10043603    -0.05400
C538        C  0.14600783  0.27935627  0.09803770    -0.32800
C539        C  0.13220256  0.30035648  0.07667215     0.36400
C540        C  0.15367324  0.31814504  0.05837530    -0.05800
C541        C  0.18834320  0.31517155  0.06246857    -0.32700
C542        C  0.20200646  0.29350609  0.08187017     0.36300
H543        H  0.12909233  0.26630986  0.11206777     0.16700
O544        O  0.09803702  0.30283748  0.07362218    -0.60200
H545        H  0.20577899  0.32911747  0.04957329     0.16700
O546        O  0.23636203  0.29054010  0.08224793    -0.60300
H547        H  0.24231282  0.28098699  0.06312021     0.43700
H548        H  0.09131068  0.28537947  0.06033884     0.43600
C549        C  0.05530018  0.05785539  0.31156607    -0.05400
C550        C  0.02118494  0.06580879  0.31293778    -0.32800
C551        C  0.99948214  0.05001563  0.33265711     0.36400
C552        C  0.01210694  0.02655854  0.35244400    -0.05800
C553        C  0.04616446  0.01793128  0.34908726    -0.32700
C554        C  0.06749824  0.03376861  0.33004046     0.36300
H555        H  0.01097711  0.08327154  0.29780469     0.16700
O556        O  0.96575374  0.05653300  0.33145727    -0.60200
H557        H  0.05704679  0.99805885  0.36065051     0.16700
O558        O  0.10048487  0.02471657  0.32914988    -0.60300
H559        H  0.11236679  0.03889483  0.34313805     0.43700
H560        H  0.96361724  0.07951812  0.33481154     0.43600
C561        C  0.05254255  0.44957710  0.43520359    -0.05400
C562        C  0.05374993  0.48264846  0.43411475    -0.32800
C563        C  0.03321929  0.49999499  0.41524257     0.36400
C564        C  0.01016405  0.48481064  0.39587528    -0.05800
C565        C  0.00710752  0.45152974  0.39856530    -0.32700
C566        C  0.02820537  0.43402668  0.41773392     0.36300
H567        H  0.07104811  0.49581784  0.44799126     0.16700
O568        O  0.03609168  0.53225333  0.41576546    -0.60200
H569        H  0.98807013  0.43867836  0.38644416     0.16700
O570        O  0.02470910  0.40187819  0.41910344    -0.60300
H571        H  0.00725191  0.39797755  0.43411128     0.43700
H572        H  0.05880157  0.53728838  0.40826606     0.43600
C573        C  0.92326359  0.04868799  0.06160866    -0.05400
C574        C  0.91085990  0.02411020  0.07909024    -0.32800
C575        C  0.93168476  0.00672296  0.09802038     0.36400
C576        C  0.96651595  0.01470417  0.10139177    -0.05800
C577        C  0.97930726  0.03750287  0.08159845    -0.32700
C578        C  0.95814312  0.05479454  0.06244420     0.36300
H579        H  0.88460605  0.01739890  0.07758157     0.16700
O580        O  0.91796816  0.98012717  0.11059768    -0.60200
H581        H  0.00599716  0.04255458  0.08159118     0.16700
O582        O  0.97205165  0.07725100  0.04440167    -0.60300
H583        H  0.97774934  0.06595770  0.02607145     0.43700
H584        H  0.89903619  0.98736919  0.12282302     0.43600
C585        C  0.92377427  0.05552487  0.43710281    -0.05400
C586        C  0.94639021  0.07384030  0.42057335    -0.32800
C587        C  0.96879462  0.05983813  0.40068696     0.36400
C588        C  0.96795559  0.02666040  0.39611184    -0.05800
C589        C  0.94658744  0.00868601  0.41436218    -0.32700
C590        C  0.92449548  0.02245011  0.43382283     0.36300
H591        H  0.94717971  0.09918021  0.42335380     0.16700
O592        O  0.99174207  0.07885787  0.38688906    -0.60200
H593        H  0.94587223  0.98323247  0.41247190     0.16700
O594        O  0.90399112  0.00283895  0.44979103    -0.60300
H595        H  0.88454298  0.99830766  0.43658198     0.43700
H596        H  0.00682923  0.08698048  0.40267814     0.43600
C597        C  0.71743019  0.01254117  0.39704612    -0.05400
C598        C  0.73676066  0.03787739  0.38550753    -0.32800
C599        C  0.75862418  0.05553774  0.40357297     0.36400
C600        C  0.76041304  0.04903482  0.43388234    -0.05800
C601        C  0.73824320  0.02736428  0.44613274    -0.32700
C602        C  0.71581870  0.01043003  0.42855432     0.36300
H603        H  0.73657758  0.04250313  0.36198808     0.16700
O604        O  0.77867773  0.07836303  0.39133516    -0.60200
H605        H  0.73768044  0.02407161  0.46986279     0.16700
O606        O  0.69174854  0.99334940  0.44303767    -0.60300
H607        H  0.67349783  0.00847050  0.44710843     0.43700
H608        H  0.79887780  0.06706175  0.38454580     0.43600
C609        C  0.75576825  0.06259724  0.06107586    -0.05400
C610        C  0.72458743  0.05061786  0.05244069    -0.32800
C611        C  0.70436570  0.03425011  0.07250325     0.36400
C612        C  0.71611447  0.02833122  0.10200268    -0.05800
C613        C  0.74405525  0.04641326  0.11156185    -0.32700
C614        C  0.76480999  0.06191982  0.09111858     0.36300
H615        H  0.71634162  0.05290055  0.02965997     0.16700
O616        O  0.67283968  0.02507180  0.06318119    -0.60200
H617        H  0.75187843  0.04572713  0.13450344     0.16700
O618        O  0.79438553  0.07534629  0.10056217    -0.60300
H619        H  0.81147030  0.05855784  0.09869691     0.43700
H620        H  0.67602892  0.01167798  0.04559082     0.43600
C621        C  0.93135964  0.44796962  0.18438938    -0.05400
C622        C  0.93085327  0.48096881  0.18248347    -0.32800
C623        C  0.95012154  0.49726753  0.16222217     0.36400
C624        C  0.97156376  0.48092411  0.14281042    -0.05800
C625        C  0.97378946  0.44778492  0.14607244    -0.32700
C626        C  0.95329620  0.43131747  0.16606271     0.36300
H627        H  0.91497878  0.49477915  0.19663582     0.16700
O628        O  0.94750773  0.52955184  0.16128610    -0.60200
H629        H  0.99135997  0.43431556  0.13341054     0.16700
O630        O  0.95514714  0.39908091  0.16752847    -0.60300
H631        H  0.93822976  0.39141482  0.15300315     0.43700
H632        H  0.92462546  0.53413798  0.15355675     0.43600
C633        C  0.92569616  0.44993033  0.31261120    -0.05400
C634        C  0.91110698  0.47327686  0.32986583    -0.32800
C635        C  0.93005801  0.49172863  0.34921962     0.36400
C636        C  0.96505642  0.48587881  0.35352122    -0.05800
C637        C  0.97971312  0.46286129  0.33525435    -0.32700
C638        C  0.96045404  0.44477801  0.31540912     0.36300
H639        H  0.88465705  0.47868714  0.32729932     0.11100
O640        O  0.91577809  0.02065828  0.35957600    -0.60200
H641        H  0.00656345  0.45896760  0.33633072     0.16700
O642        O  0.97628971  0.42370332  0.29756709    -0.60300
H643        H  0.97789631  0.40397979  0.30935995     0.43700
H644        H  0.89670521  0.01335932  0.37178305     0.43600
C645        C  0.76636509  0.44748345  0.30977375    -0.05400
C646        C  0.73365096  0.43634440  0.31379348    -0.32800
C647        C  0.71268859  0.44993287  0.33473751     0.36400
C648        C  0.72392294  0.47605854  0.35213417    -0.05800
C649        C  0.75845900  0.48393535  0.35001317    -0.32700
C650        C  0.77890359  0.47099578  0.32853386     0.36300
H651        H  0.72381802  0.41759280  0.30001944     0.16700
O652        O  0.68040517  0.43864990  0.33678353    -0.60200
H653        H  0.77099717  0.49971074  0.36490261     0.16700
O654        O  0.81177181  0.48067933  0.32693545    -0.60300
H655        H  0.81116506  0.50097002  0.31593412     0.43700
H656        H  0.68237472  0.41770269  0.34650395     0.43600
C657        C  0.77102303  0.44897441  0.17583138    -0.05400
C658        C  0.73670256  0.44210508  0.17482702    -0.32800
C659        C  0.71505180  0.45888875  0.15608286     0.36400
C660        C  0.72750029  0.48328215  0.13719804    -0.05800
C661        C  0.76275802  0.48558186  0.13465758    -0.32700
C662        C  0.78424923  0.46987002  0.15458174     0.36300
H663        H  0.72602631  0.42525439  0.19018076     0.16700
O664        O  0.68128016  0.45275878  0.15787376    -0.60200
H665        H  0.77432417  0.49986327  0.11786921     0.16700
O666        O  0.81822064  0.47501395  0.15295187    -0.60300
H667        H  0.82215315  0.49577628  0.16235589     0.43700
H668        H  0.67418593  0.46116994  0.17715590     0.43600
C669        C  0.76206094  0.23930474  0.35861875    -0.05400
C670        C  0.75616700  0.20655730  0.36201854    -0.32800
C671        C  0.73322638  0.19049525  0.34378406     0.36400
C672        C  0.71379536  0.20716860  0.32283314    -0.05800
C673        C  0.71719893  0.23988177  0.32096103    -0.32700
C674        C  0.74063527  0.25590681  0.33847733     0.36300
H675        H  0.76848959  0.19296083  0.37911124     0.16700
O676        O  0.72926147  0.15853298  0.34723453    -0.60200
H677        H  0.70253378  0.25316050  0.30491089     0.16700
O678        O  0.74353154  0.28793205  0.33472293    -0.60300
H679        H  0.72263264  0.29691399  0.34278751     0.43700
H680        H  0.74879705  0.14902733  0.33733004     0.43600
C681        C  0.76406057  0.27627421  0.39820338    -0.05400
C682        C  0.74518343  0.25677368  0.41743376    -0.32800
C683        C  0.72169623  0.26861461  0.43671461     0.36400
C684        C  0.71635442  0.30125047  0.43829148    -0.05800
C685        C  0.73374417  0.32115226  0.41868754    -0.32700
C686        C  0.75692754  0.30910614  0.39838927     0.36300
H687        H  0.74899640  0.23150694  0.41774327     0.16700
O688        O  0.70504888  0.24779023  0.45469041    -0.60200
H689        H  0.72897164  0.34628623  0.41870033     0.16700
O690        O  0.76975858  0.32926651  0.37757920    -0.60300
H691        H  0.78058058  0.34680809  0.38857737     0.43700
H692        H  0.68568413  0.24013305  0.44273096     0.43600
C693        C  0.81135456  0.27736545  0.35601451    -0.05400
C694        C  0.81524643  0.26679583  0.32664673    -0.32800
C695        C  0.82933560  0.28606890  0.30504632     0.36400
C696        C  0.84200257  0.31578888  0.31256659    -0.05800
C697        C  0.84480471  0.32377577  0.34247563    -0.32700
C698        C  0.83102435  0.30389809  0.36433782     0.36300
H699        H  0.80559169  0.24414147  0.31962590     0.16700
O700        O  0.82945532  0.27617170  0.27629488    -0.60200
H701        H  0.85593213  0.34613072  0.34876937     0.16700
O702        O  0.83473712  0.31205321  0.39334090    -0.60300
H703        H  0.85723995  0.30416201  0.39928052     0.43700
H704        H  0.80645132  0.28023112  0.26858039     0.43600
C705        C  0.81284317  0.23776047  0.39689367    -0.05400
C706        C  0.82772226  0.21050012  0.38512453    -0.32800
C707        C  0.84038024  0.18671499  0.40387203     0.36400
C708        C  0.84210669  0.19160220  0.43444530    -0.05800
C709        C  0.83483618  0.22141807  0.44538319    -0.32700
C710        C  0.82062134  0.24461982  0.42702336     0.36300
H711        H  0.82563521  0.20579093  0.36174716     0.16700
O712        O  0.84918312  0.15816535  0.39233717    -0.60200
H713        H  0.83749529  0.22593624  0.46879176     0.16700
O714        O  0.81428949  0.27369496  0.43889084    -0.60300
H715        H  0.79876567  0.27002357  0.45552282     0.43700
H716        H  0.82810479  0.14562283  0.39168894     0.43600
C717        C  0.76273585  0.25968249  0.10623868    -0.05400
C718        C  0.72751411  0.25539793  0.10854465    -0.32800
C719        C  0.70491383  0.26993561  0.08887222     0.36400
C720        C  0.71690824  0.28842652  0.06535806    -0.05800
C721        C  0.75165319  0.29079195  0.06139485    -0.32700
C722        C  0.77426473  0.27594274  0.08074207     0.36300
H723        H  0.71676784  0.24043238  0.12531290     0.16700
O724        O  0.67109564  0.26586335  0.09297983    -0.60200
H725        H  0.76154760  0.30397057  0.04286077     0.16700
O726        O  0.80794423  0.27907422  0.07544662    -0.60300
H727        H  0.81240225  0.26505095  0.05854446     0.43700
H728        H  0.66481980  0.28207663  0.10753964     0.43600
C729        C  0.76995259  0.22885069  0.15534624    -0.05400
C730        C  0.77304315  0.19630036  0.16234219    -0.32800
C731        C  0.75222112  0.18153006  0.18296458     0.36400
C732        C  0.72872492  0.19934895  0.19853461    -0.05800
C733        C  0.72888762  0.23227590  0.19479752    -0.32700
C734        C  0.74920779  0.24701742  0.17385067     0.36300
H735        H  0.79124848  0.18160028  0.15167601     0.16700
O736        O  0.75432367  0.14948180  0.18679329    -0.60200
H737        H  0.71253123  0.24693126  0.20773698     0.16700
O738        O  0.74786231  0.27925333  0.17100174    -0.60300
H739        H  0.72475879  0.28421537  0.16405498     0.43700
H740        H  0.77334485  0.14622875  0.20078619     0.43600
C741        C  0.84187242  0.31722182  0.17940635    -0.05400
C742        C  0.85021379  0.28545461  0.18355708    -0.32800
C743        C  0.83542260  0.26200059  0.16570223     0.36400
C744        C  0.81195049  0.27019541  0.14299490    -0.05800
C745        C  0.80667143  0.30279576  0.13774227    -0.32700
C746        C  0.82179276  0.32582519  0.15509178     0.36300
H747        H  0.86560412  0.27848091  0.20233528     0.16700
O748        O  0.84239824  0.23094635  0.17178609    -0.60200
H749        H  0.78831138  0.31145471  0.12213802     0.16700
O750        O  0.81338268  0.35681388  0.15021270    -0.60300
H751        H  0.83249842  0.36597238  0.13922192     0.43700
H752        H  0.83163687  0.22630994  0.19094782     0.43600
C753        C  0.80665461  0.21960191  0.10989056    -0.05400
C754        C  0.78566477  0.19625839  0.09734353    -0.32800
C755        C  0.79718069  0.17489501  0.07699976     0.36400
C756        C  0.83019166  0.17703956  0.06669351    -0.05800
C757        C  0.85237520  0.19868582  0.07982851    -0.32700
C758        C  0.84098646  0.22003777  0.10123326     0.36300
H759        H  0.75934810  0.19493653  0.10303851     0.16700
O760        O  0.77516175  0.15273424  0.06619408    -0.60200
H761        H  0.87799333  0.20042317  0.07221617     0.16700
O762        O  0.86327912  0.24199035  0.11189086    -0.60300
H763        H  0.86624889  0.25759112  0.09574608     0.43700
H764        H  0.77495377  0.13566612  0.08124432     0.43600
C765        C  0.78687759  0.24635408  0.62902606    -0.02400
C766        C  0.79023620  0.25703486  0.87764496    -0.02400
Fe767      Fe  0.80369596  0.38094888  0.74531516     1.65800
Fe768      Fe  0.84788663  0.44880312  0.74516544     1.73200
Fe769      Fe  0.89027279  0.37868491  0.74742794     1.54400
O770        O  0.87451686  0.35079551  0.78267963    -0.81600
O771        O  0.88722866  0.45080331  0.71726519    -0.79900
O772        O  0.81893135  0.34781068  0.77612265    -0.84100
O773        O  0.81824939  0.35348440  0.71153617    -0.79000
O774        O  0.91304069  0.40917188  0.77795774    -0.80800
O775        O  0.81702900  0.45160458  0.70871716    -0.83500
C776        C  0.84516339  0.34035883  0.70387160     0.97300
C777        C  0.84585958  0.33976262  0.78935223     1.04700
O778        O  0.84742085  0.40269086  0.74606320    -1.12500
O779        O  0.80861073  0.45346198  0.77385367    -0.74900
O780        O  0.78446882  0.40652563  0.77941633    -0.78400
O781        O  0.87339235  0.34532525  0.71656699    -0.79100
C782        C  0.78796121  0.43518022  0.78645948     0.96200
O783        O  0.78232382  0.41089789  0.71380066    -0.77100
O784        O  0.87935506  0.45084521  0.78067654    -0.82200
C785        C  0.90874068  0.43300064  0.70578800     0.98800
C786        C  0.90500128  0.43554250  0.78911323     1.04700
O787        O  0.91130409  0.40402536  0.71270792    -0.77900
C788        C  0.79142365  0.43602888  0.70064163     1.03000
Fe789      Fe  0.79824705  0.12300260  0.49224543     1.65800
Fe790      Fe  0.84023449  0.05385374  0.99977290     1.73200
Fe791      Fe  0.88431314  0.12259842  0.00019548     1.54400
O792        O  0.86852326  0.15993862  0.97291895    -0.81600
O793        O  0.87304344  0.05265898  0.53534294    -0.79900
O794        O  0.81804309  0.14606457  0.95597467    -0.84100
O795        O  0.81275683  0.15639046  0.52234352    -0.79000
O796        O  0.90293978  0.09894814  0.96386621    -0.80800
O797        O  0.80207987  0.05313144  0.53063537    -0.83500
C798        C  0.83670598  0.15993120  0.54078645     0.97300
C799        C  0.84391787  0.16341163  0.95509143     1.04700
O800        O  0.84128556  0.09953182  0.99726005    -1.12500
O801        O  0.80894552  0.04892672  0.96339690    -0.74900
O802        O  0.77686830  0.09169127  0.96352247    -0.78400
O803        O  0.86581819  0.14830141  0.53706147    -0.79100
C804        C  0.78405737  0.06468356  0.95391807     0.96200
O805        O  0.77501101  0.09897094  0.52652546    -0.77100
O806        O  0.88075417  0.05114557  0.97199989    -0.82200
C807        C  0.90032395  0.06664099  0.54132210     0.98800
C808        C  0.90124936  0.06936521  0.95874209     1.04700
O809        O  0.90813658  0.09261145  0.52916834    -0.77900
C810        C  0.77937348  0.07210910  0.53850958     1.03000
C811        C  0.98852112  0.50625466  0.87436996    -0.02400
Fe812      Fe  0.18203852  0.38329250  0.49384561     1.65800
Fe813      Fe  0.13769253  0.44959684  0.99691475     1.73200
Fe814      Fe  0.09730444  0.37844231  0.99516321     1.54400
O815        O  0.11778479  0.34573478  0.96466120    -0.81600
O816        O  0.10755128  0.44790701  0.53250760    -0.79900
O817        O  0.16905214  0.36408612  0.95390312    -0.84100
O818        O  0.16489457  0.34321025  0.51399030    -0.79000
O819        O  0.07591060  0.40396382  0.95996939    -0.80800
O820        O  0.17854987  0.45199357  0.52497952    -0.83500
C821        C  0.14319900  0.33891139  0.53369338     0.97300
C822        C  0.14436323  0.34558849  0.94886529     1.04700
O823        O  0.13862119  0.40410904  0.99500397    -1.12500
O824        O  0.16875461  0.45592147  0.96129019    -0.74900
O825        O  0.20664873  0.41990439  0.97291556    -0.78400
O826        O  0.11476267  0.35222609  0.53190637    -0.79100
C827        C  0.19829457  0.44509699  0.95974572     0.96200
O828        O  0.19670492  0.40309989  0.53415673    -0.77100
O829        O  0.09689094  0.45171592  0.96939026    -0.82200
C830        C  0.08100046  0.43277716  0.53847908     0.98800
C831        C  0.07632066  0.43380071  0.95590188     1.04700
O832        O  0.07250141  0.40767544  0.52487891    -0.77900
C833        C  0.19695628  0.43270000  0.53924337     1.03000
Fe834      Fe  0.18478307  0.11756207  0.74665925     1.65800
Fe835      Fe  0.13770442  0.05226527  0.74899012     1.73200
Fe836      Fe  0.09894798  0.12391519  0.74719258     1.54400
O837        O  0.12012082  0.15666794  0.77763990    -0.81600
O838        O  0.10674611  0.05167193  0.71304241    -0.79900
O839        O  0.17413596  0.14321332  0.78398653    -0.84100
O840        O  0.16926218  0.15403586  0.71995289    -0.79000
O841        O  0.07770742  0.09993891  0.78264141    -0.80800
O842        O  0.17791844  0.04569892  0.72149732    -0.83500
C843        C  0.14290642  0.16302840  0.70646888     0.97300
C844        C  0.14843052  0.15895864  0.79133135     1.04700
O845        O  0.14021517  0.09805620  0.74764017    -1.12500
O846        O  0.16868495  0.04928036  0.78527397    -0.74900
O847        O  0.20814912  0.08385079  0.77322071    -0.78400
O848        O  0.11430071  0.15088579  0.71117637    -0.79100
C849        C  0.19808554  0.06040430  0.78828276     0.96200
O850        O  0.19828120  0.09286773  0.70926322    -0.77100
O851        O  0.09743270  0.05147280  0.77662767    -0.82200
C852        C  0.08040191  0.06682104  0.70621661     0.98800
C853        C  0.07811300  0.07073955  0.78909652     1.04700
O854        O  0.07346516  0.09352258  0.71757474    -0.77900
C855        C  0.19700843  0.06311848  0.70618985     1.03000
C856        C  0.20217166  0.24986272  0.87518089    -0.02400
C857        C  0.19862756  0.25088092  0.62207959    -0.02400
C858        C  0.99248151  0.50052303  0.62014949    -0.02400
Fe859      Fe  0.30317102  0.36705661  0.74836721     1.65800
Fe860      Fe  0.35045977  0.30138807  0.74451191     1.73200
Fe861      Fe  0.38950878  0.37379455  0.75179571     1.54400
O862        O  0.37283568  0.40526156  0.71912659    -0.81600
O863        O  0.38550926  0.29825133  0.77753214    -0.79900
O864        O  0.31713975  0.39817945  0.71614952    -0.84100
O865        O  0.31593671  0.39723853  0.78095508    -0.79000
O866        O  0.41453615  0.34907261  0.71868510    -0.80800
O867        O  0.31400461  0.29272792  0.77547041    -0.83500
C868        C  0.34139240  0.40860090  0.79393447     0.97300
C869        C  0.34423162  0.41061976  0.70727906     1.04700
O870        O  0.34786818  0.34746493  0.74831786    -1.12500
O871        O  0.31629484  0.29887364  0.71044699    -0.74900
O872        O  0.28288987  0.33999223  0.71529473    -0.78400
O873        O  0.37110097  0.40232841  0.78586888    -0.79100
C874        C  0.29114339  0.31497378  0.70238888     0.96200
O875        O  0.28517353  0.33721743  0.78087252    -0.77100
O876        O  0.38660336  0.30383361  0.71323301    -0.82200
C877        C  0.40676250  0.31569019  0.79068121     0.98800
C878        C  0.40982634  0.32265078  0.70604141     1.04700
O879        O  0.41061064  0.34473327  0.78422865    -0.77900
C880        C  0.29136011  0.30874929  0.78771582     1.03000
Fe881      Fe  0.30493424  0.12861604  0.00218511     1.65800
Fe882      Fe  0.34707800  0.19666488  0.51046686     1.73200
Fe883      Fe  0.39035423  0.12689410  0.50470322     1.54400
O884        O  0.37519382  0.09638978  0.53779507    -0.81600
O885        O  0.38568977  0.20311330  0.97981135    -0.79900
O886        O  0.31912096  0.09524839  0.53327357    -0.84100
O887        O  0.32083029  0.10157169  0.96837718    -0.79000
O888        O  0.41374116  0.15464976  0.53680722    -0.80800
O889        O  0.31303548  0.20444280  0.97702025    -0.83500
C890        C  0.34793235  0.09036580  0.95899791     0.97300
C891        C  0.34640866  0.08679246  0.54568648     1.04700
O892        O  0.34715312  0.15053130  0.50578494    -1.12500
O893        O  0.30892941  0.19659681  0.54109023    -0.74900
O894        O  0.28104752  0.15131667  0.53598604    -0.78400
O895        O  0.37615236  0.09626217  0.97119834    -0.79100
C896        C  0.28525981  0.17788984  0.54787737     0.96200
O897        O  0.28553956  0.15908495  0.97028464    -0.77100
O898        O  0.38098302  0.19597492  0.54525891    -0.82200
C899        C  0.40686766  0.18584877  0.96673785     0.98800
C900        C  0.40704169  0.17980009  0.55058130     1.04700
O901        O  0.41069885  0.15670504  0.97250376    -0.77900
C902        C  0.29084433  0.18787760  0.96391255     1.03000
C903        C  0.29204404  0.00392867  0.87494710    -0.02400
C904        C  0.28774474  0.99874349  0.62476112    -0.02400
C905        C  0.49135363  0.24710214  0.87697446    -0.02400
C906        C  0.70024888  0.49374512  0.87415401    -0.02400
Fe907      Fe  0.68562364  0.13233242  0.76019730     1.65800
Fe908      Fe  0.63817562  0.19729542  0.75455546     1.73200
Fe909      Fe  0.60012440  0.12487835  0.75352100     1.54400
O910        O  0.62251738  0.09277696  0.72427590    -0.81600
O911        O  0.60517840  0.19719657  0.78849745    -0.79900
O912        O  0.67710747  0.10548145  0.72352978    -0.84100
O913        O  0.66934167  0.09644629  0.78701406    -0.79000
O914        O  0.58121587  0.14898612  0.71679682    -0.80800
O915        O  0.67677765  0.20404619  0.78456264    -0.83500
C916        C  0.64214707  0.08624404  0.79773513     0.97300
C917        C  0.65214416  0.08951108  0.71420290     1.04700
O918        O  0.64108590  0.15134737  0.75606662    -1.12500
O919        O  0.67134734  0.20122425  0.72040718    -0.74900
O920        O  0.70924673  0.16536194  0.73370116    -0.78400
O921        O  0.61361736  0.09714589  0.79016225    -0.79100
C922        C  0.70026774  0.18908833  0.71840370     0.96200
O923        O  0.69804985  0.15767354  0.79741320    -0.77100
O924        O  0.59900689  0.19811849  0.72452628    -0.82200
C925        C  0.57888516  0.18124308  0.79375376     0.98800
C926        C  0.58057414  0.17834250  0.71112320     1.04700
O927        O  0.57297493  0.15448564  0.78185959    -0.77900
C928        C  0.69610411  0.18726273  0.80056372     1.03000
C929        C  0.70046724  0.00170392  0.62382246    -0.02400
Fe930      Fe  0.68270384  0.36398564  0.00517431     1.65800
Fe931      Fe  0.63353082  0.30060731  0.50304439     1.73200
Fe932      Fe  0.59699181  0.37305459  0.50109324     1.54400
O933        O  0.61945724  0.40782682  0.52874460    -0.81600
O934        O  0.60409822  0.30129787  0.96690305    -0.79900
O935        O  0.66725063  0.38537539  0.54338424    -0.84100
O936        O  0.66850728  0.40291064  0.98056609    -0.79000
O937        O  0.57724053  0.35130212  0.53801232    -0.80800
O938        O  0.67512954  0.29495571  0.97476515    -0.83500
C939        C  0.64606450  0.40669822  0.96075206     0.97300
C940        C  0.64605295  0.40744302  0.54488254     1.04700
O941        O  0.63689062  0.34591720  0.50287488    -1.12500
O942        O  0.66356305  0.29496398  0.53977380    -0.74900
O943        O  0.70374008  0.32917505  0.52950926    -0.78400
O944        O  0.61691429  0.39486704  0.96318303    -0.79100
C945        C  0.69296993  0.30548434  0.54374426     0.96200
O946        O  0.69771750  0.34246972  0.96704254    -0.77100
O947        O  0.59340698  0.30125177  0.53132681    -0.82200
C948        C  0.57823203  0.31712489  0.96011750     0.98800
C949        C  0.57690769  0.32214057  0.54489978     1.04700
O950        O  0.57094892  0.34273352  0.97305253    -0.77900
C951        C  0.69527635  0.31330413  0.96107921     1.03000
C952        C  0.49738104  0.25158748  0.62867634    -0.02400
C953        C  0.55707230  0.31103474  0.56990763    -0.05400
C954        C  0.57347149  0.29473686  0.59273658    -0.32800
C955        C  0.55537471  0.27769063  0.61378541     0.36400
C956        C  0.51994174  0.27449009  0.61063971    -0.05800
C957        C  0.50373879  0.29444932  0.58965646    -0.32700
C958        C  0.52198652  0.31228430  0.56929650     0.36300
H959        H  0.60066703  0.29481092  0.59397917     0.16700
O960        O  0.57287959  0.26456236  0.63695872    -0.60200
H961        H  0.47662216  0.29426693  0.58754865     0.16700
O962        O  0.50529800  0.32893069  0.54765307    -0.60300
H963        H  0.50283241  0.31413674  0.53091683     0.43700
H964        H  0.58060029  0.28250030  0.64924453     0.43600
C965        C  0.68189398  0.48245363  0.60147108    -0.05400
C966        C  0.70206292  0.46754378  0.58029761    -0.32800
C967        C  0.68976584  0.44461794  0.56155501     0.36400
C968        C  0.65622172  0.43466786  0.56330190    -0.05800
C969        C  0.63497188  0.44950000  0.58351554    -0.32700
C970        C  0.64758582  0.47314367  0.60281697     0.36300
H971        H  0.72830821  0.47396567  0.57818770     0.16700
O972        O  0.71092962  0.43237435  0.54089832    -0.60200
H973        H  0.60903674  0.44196988  0.58514343     0.16700
O974        O  0.62649745  0.48603514  0.62305237    -0.60300
H975        H  0.62098937  0.46875817  0.63703891     0.43700
H976        H  0.72591593  0.41771917  0.55193337     0.43600
C977        C  0.51682200  0.22854763  0.64988193    -0.05400
C978        C  0.50918723  0.22642842  0.68022009    -0.32800
C979        C  0.52917497  0.20908345  0.69992735     0.36400
C980        C  0.55604509  0.19119745  0.68965855    -0.05800
C981        C  0.56132206  0.18943378  0.65930706    -0.32700
C982        C  0.54151759  0.20722877  0.63941251     0.36300
H983        H  0.48810505  0.23871385  0.68938352     0.16700
O984        O  0.52251428  0.21010586  0.72950340    -0.60200
H985        H  0.58179787  0.17540873  0.65106014     0.16700
O986        O  0.54866502  0.20570020  0.61000581    -0.60300
H987        H  0.53918692  0.18526275  0.60331811     0.43700
H988        H  0.53338558  0.22976541  0.73658478     0.43600
C989        C  0.65980619  0.06478728  0.69223054    -0.05400
C990        C  0.64296185  0.06231590  0.66487863    -0.32800
C991        C  0.65484392  0.04190023  0.64264396     0.36400
C992        C  0.68291166  0.02195501  0.64808190    -0.05800
C993        C  0.69961045  0.02601794  0.67569662    -0.32700
C994        C  0.68806994  0.04597214  0.69741937     0.36300
H995        H  0.62186847  0.07760847  0.66002914     0.16700
O996        O  0.63970383  0.04279356  0.61537612    -0.60200
H997        H  0.72334251  0.01498182  0.68086936     0.16700
O998        O  0.70621861  0.04850010  0.72329354    -0.60300
H999        H  0.70581811  0.02721093  0.73248202     0.43700
H1000       H  0.64749908  0.06275919  0.60616547     0.43600
C1001       C  0.64530156  0.05834319  0.81726794    -0.05400
C1002       C  0.64129952  0.05979511  0.84789083    -0.32800
C1003       C  0.65460154  0.03589659  0.86653393     0.36400
C1004       C  0.67442112  0.01106703  0.85477567    -0.05800
C1005       C  0.67536123  0.00931977  0.82357600    -0.32700
C1006       C  0.66027748  0.03170637  0.80534444     0.36300
H1007       H  0.62969632  0.08027902  0.85752249     0.16700
O1008       O  0.65094600  0.03892918  0.89636993    -0.60200
H1009       H  0.68941232  0.99197909  0.81198581     0.16700
O1010       O  0.66347478  0.02897498  0.77540474    -0.60300
H1011       H  0.64275439  0.01801670  0.76864469     0.43700
H1012       H  0.62768896  0.03186258  0.90043720     0.43600
C1013       C  0.68286745  0.46698037  0.89180748    -0.05400
C1014       C  0.64804563  0.46677353  0.89777643    -0.32800
C1015       C  0.63467010  0.44624745  0.91927562     0.36400
C1016       C  0.65593257  0.42504508  0.93443878    -0.05800
C1017       C  0.68942079  0.42269316  0.92601689    -0.32700
C1018       C  0.70308434  0.44326540  0.90551766     0.36300
H1019       H  0.63147561  0.48382289  0.88750279     0.16700
O1020       O  0.60167014  0.44905572  0.92701503    -0.60200
H1021       H  0.70603747  0.40596328  0.93690044     0.16700
O1022       O  0.73726025  0.44251783  0.90193854    -0.60300
H1023       H  0.74166190  0.42318665  0.89044025     0.43700
H1024       H  0.58927009  0.43421937  0.91400762     0.43600
C1025       C  0.51167393  0.22666184  0.85489479    -0.05400
C1026       C  0.53147011  0.24382287  0.83464147    -0.32800
C1027       C  0.55224246  0.22921192  0.81462780     0.36400
C1028       C  0.55416854  0.19609877  0.81365937    -0.05800
C1029       C  0.53247274  0.17835668  0.83155282    -0.32700
C1030       C  0.51102325  0.19320929  0.85190926     0.36300
H1031       H  0.53189379  0.26935745  0.83516392     0.16700
O1032       O  0.57103765  0.24788972  0.79622416    -0.60200
H1033       H  0.53225272  0.15288651  0.82992011     0.16700
O1034       O  0.48792730  0.17508878  0.86662081    -0.60300
H1035       H  0.50049806  0.15730687  0.87573134     0.43700
H1036       H  0.55514767  0.25549169  0.78077557     0.43600
C1037       C  0.51551458  0.26770150  0.89657080    -0.05400
C1038       C  0.50147918  0.29070109  0.91531607    -0.32800
C1039       C  0.52135834  0.30852622  0.93500139     0.36400
C1040       C  0.55624429  0.30367823  0.93661759    -0.05800
C1041       C  0.57046319  0.28159343  0.91778102    -0.32700
C1042       C  0.55089118  0.26274143  0.89930782     0.36300
H1043       H  0.47459583  0.29444331  0.91507486     0.16700
O1044       O  0.50608463  0.32900309  0.95379466    -0.60200
H1045       H  0.59723490  0.27709341  0.91873446     0.16700
O1046       O  0.56704478  0.23835517  0.88581970    -0.60300
H1047       H  0.57272629  0.22297099  0.90165428     0.43700
H1048       H  0.50457255  0.34921037  0.94273839     0.43600
C1049       C  0.46888642  0.22901295  0.89962893    -0.05400
C1050       C  0.43475691  0.23761139  0.90348769    -0.32800
C1051       C  0.41454682  0.22339023  0.92464199     0.36400
C1052       C  0.42792824  0.20049390  0.94375151    -0.05800
C1053       C  0.46199809  0.19270422  0.94158421    -0.32700
C1054       C  0.48261220  0.20719890  0.92034877     0.36300
H1055       H  0.42314080  0.25637809  0.89088686     0.16700
O1056       O  0.38163774  0.23253033  0.92666217    -0.60200
H1057       H  0.47301337  0.17606529  0.95710472     0.16700
O1058       O  0.51649436  0.20129822  0.92097288    -0.60300
H1059       H  0.51912248  0.17805741  0.92133449     0.43700
H1060       H  0.36893683  0.21820563  0.91336093     0.43600
C1061       C  0.47647156  0.22915814  0.60786206    -0.05400
C1062       C  0.44939594  0.21164195  0.61987751    -0.32800
C1063       C  0.42648775  0.19515144  0.60178877     0.36400
C1064       C  0.43220600  0.19284115  0.57144080    -0.05800
C1065       C  0.46153689  0.20589053  0.55993939    -0.32700
C1066       C  0.48356795  0.22388169  0.57747698     0.36300
H1067       H  0.44438851  0.21294631  0.64325066     0.16700
O1068       O  0.39803413  0.18237700  0.61380084    -0.60200
H1069       H  0.46687645  0.20310041  0.53672572     0.16700
O1070       O  0.51288023  0.23418105  0.56491554    -0.60300
H1071       H  0.50622099  0.24731104  0.54763322     0.43700
H1072       H  0.40519725  0.16196325  0.62255614     0.43600
C1073       C  0.31589083  0.02938817  0.88891490    -0.05400
C1074       C  0.34142616  0.01913791  0.90889323    -0.32800
C1075       C  0.35499185  0.03922254  0.93077853     0.36400
C1076       C  0.34464443  0.07079603  0.93208164    -0.05800
C1077       C  0.32299334  0.08216390  0.91008351    -0.32700
C1078       C  0.30769004  0.06218194  0.88955753     0.36300
H1079       H  0.34820103  0.99447560  0.90970450     0.16700
O1080       O  0.37569373  0.02697315  0.95231115    -0.60200
H1081       H  0.31455585  0.10640300  0.91098824     0.16700
O1082       O  0.28103318  0.07450944  0.87398414    -0.60300
H1083       H  0.29048573  0.09133010  0.86118897     0.43700
H1084       H  0.36042912  0.01826583  0.96747637     0.43600
C1085       C  0.31217389  0.02211226  0.60918977    -0.05400
C1086       C  0.31326861  0.05457842  0.61593202    -0.32800
C1087       C  0.32776276  0.07618159  0.59649958     0.36400
C1088       C  0.34331584  0.06542450  0.57093761    -0.05800
C1089       C  0.34867711  0.03318635  0.56737293    -0.32700
C1090       C  0.33413982  0.01147247  0.58686178     0.36300
H1091       H  0.30114785  0.06384536  0.63516662     0.16700
O1092       O  0.32387017  0.10787506  0.60120718    -0.60200
H1093       H  0.36147516  0.02470869  0.54805651     0.16700
O1094       O  0.33582517  0.47967534  0.58147944    -0.60300
H1095       H  0.35780018  0.47469774  0.59087142     0.43700
H1096       H  0.34322513  0.11404945  0.61389670     0.43600
C1097       C  0.43236621  0.31173954  0.68250287    -0.05400
C1098       C  0.46727130  0.31339039  0.68604833    -0.32800
C1099       C  0.48840469  0.29539944  0.66810615     0.36400
C1100       C  0.47463046  0.27491084  0.64618657    -0.05800
C1101       C  0.44003683  0.27816234  0.63986768    -0.32700
C1102       C  0.41902166  0.29497454  0.65841256     0.36300
H1103       H  0.47814191  0.32690031  0.70399295     0.16700
O1104       O  0.52247646  0.29723642  0.67271363    -0.60200
H1105       H  0.42843655  0.26725092  0.62087098     0.16700
O1106       O  0.38507524  0.29419421  0.65319317    -0.60300
H1107       H  0.37811505  0.27252205  0.65883574     0.43700
H1108       H  0.52668578  0.28903188  0.69294758     0.43600
C1109       C  0.42798256  0.30027246  0.81377329    -0.05400
C1110       C  0.42455828  0.26759992  0.81778222    -0.32800
C1111       C  0.44475209  0.25106237  0.83762138     0.36400
C1112       C  0.46872231  0.26698228  0.85560105    -0.05800
C1113       C  0.47248492  0.29990860  0.85126195    -0.32700
C1114       C  0.45225559  0.31646357  0.83084066     0.36300
H1115       H  0.40639239  0.25417904  0.80500743     0.16700
O1116       O  0.44009869  0.21904960  0.84000845    -0.60200
H1117       H  0.49174902  0.31308831  0.86279794     0.16700
O1118       O  0.45717279  0.34827367  0.82729127    -0.60300
H1119       H  0.44192608  0.35826926  0.84155975     0.43700
H1120       H  0.44898040  0.21010810  0.82153576     0.43600
C1121       C  0.33388718  0.42954525  0.81929013    -0.05400
C1122       C  0.30240458  0.42554251  0.83223367    -0.32800
C1123       C  0.28878138  0.44827494  0.85033147     0.36400
C1124       C  0.30785716  0.47511598  0.85908275    -0.05800
C1125       C  0.34099983  0.47772065  0.84815459    -0.32700
C1126       C  0.35386241  0.45536502  0.82821740     0.36300
H1127       H  0.28671453  0.40544962  0.82660266     0.16700
O1128       O  0.25621173  0.44399514  0.85917344    -0.60200
H1129       H  0.35626681  0.49816017  0.85323800     0.16700
O1130       O  0.38472611  0.46036637  0.81596516    -0.60300
H1131       H  0.40115921  0.45289681  0.83102765     0.43700
H1132       H  0.24215557  0.44574076  0.84102411     0.43600
C1133       C  0.30986353  0.47447140  0.64188270    -0.05400
C1134       C  0.31108952  0.44191499  0.63570396    -0.32800
C1135       C  0.32528169  0.42071812  0.65592303     0.36400
C1136       C  0.34096916  0.43189607  0.68170631    -0.05800
C1137       C  0.34624718  0.46429654  0.68491991    -0.32700
C1138       C  0.33133827  0.48567501  0.66492944     0.36300
H1139       H  0.29939067  0.43220972  0.61616236     0.16700
O1140       O  0.32230411  0.38890345  0.65105532    -0.60200
H1141       H  0.35925799  0.47316882  0.70429358     0.16700
O1142       O  0.33554833  0.51744916  0.66945264    -0.60300
H1143       H  0.32503577  0.52202266  0.68864940     0.43700
H1144       H  0.29909971  0.38327325  0.65689006     0.43600
C1145       C  0.26979411  0.30334782  0.67791492    -0.05400
C1146       C  0.23638499  0.31331910  0.67523391    -0.32800
C1147       C  0.21399498  0.29807825  0.65597935     0.36400
C1148       C  0.22473838  0.27167677  0.63934038    -0.05800
C1149       C  0.25966976  0.26629313  0.63839233    -0.32700
C1150       C  0.28172200  0.28095492  0.65801980     0.36300
H1151       H  0.22694747  0.33174584  0.68927855     0.16700
O1152       O  0.18112032  0.30776958  0.65487766    -0.60200
H1153       H  0.27071151  0.25072536  0.62262210     0.16700
O1154       O  0.31507717  0.27335573  0.65727858    -0.60300
H1155       H  0.31683485  0.25249333  0.66719684     0.43700
H1156       H  0.17164949  0.30278407  0.67448793     0.43600
C1157       C  0.21594292  0.22473807  0.60333346    -0.05400
C1158       C  0.21078288  0.22315221  0.57240519    -0.32800
C1159       C  0.23255822  0.20658715  0.55459726     0.36400
C1160       C  0.25897006  0.18948320  0.56731762    -0.05800
C1161       C  0.26015066  0.18516409  0.59796181    -0.32700
C1162       C  0.23788049  0.20183221  0.61607770     0.36300
H1163       H  0.19105802  0.23618190  0.56127983     0.16700
O1164       O  0.22923372  0.20909543  0.52452299    -0.60200
H1165       H  0.27910879  0.17007154  0.60787089     0.16700
O1166       O  0.23926074  0.19741358  0.64611827    -0.60300
H1167       H  0.26276855  0.20181000  0.65236149     0.43700
H1168       H  0.21515151  0.19081947  0.51857307     0.43600
C1169       C  0.22564015  0.23428971  0.89951146    -0.05400
C1170       C  0.24609405  0.20842199  0.89161670    -0.32800
C1171       C  0.26628300  0.19228994  0.91238754     0.36400
C1172       C  0.26930992  0.20346091  0.94132699    -0.05800
C1173       C  0.25216029  0.23077874  0.94888094    -0.32700
C1174       C  0.23116110  0.24653701  0.92859295     0.36300
H1175       H  0.24561592  0.19991525  0.86916655     0.16700
O1176       O  0.28391054  0.16628332  0.90384846    -0.60200
H1177       H  0.25522213  0.24029548  0.97087591     0.16700
O1178       O  0.21753248  0.27448525  0.93756892    -0.60300
H1179       H  0.23665991  0.28871949  0.94230521     0.43700
H1180       H  0.26788674  0.14841300  0.90557880     0.43600
C1181       C  0.22762701  0.26464320  0.85261223    -0.05400
C1182       C  0.23165769  0.25179212  0.82403844    -0.32800
C1183       C  0.25222240  0.26601156  0.80304704     0.36400
C1184       C  0.27070273  0.29307590  0.81018138    -0.05800
C1185       C  0.27013930  0.30432898  0.83903628    -0.32700
C1186       C  0.24975761  0.28988092  0.86038899     0.36300
H1187       H  0.21934493  0.23024088  0.81737480     0.16700
O1188       O  0.25308944  0.25387176  0.77510413    -0.60200
H1189       H  0.28587347  0.32420634  0.84517258     0.16700
O1190       O  0.25194669  0.30039090  0.88887290    -0.60300
H1191       H  0.24651566  0.32319663  0.88820846     0.43700
H1192       H  0.26980100  0.23662406  0.77614701     0.43600
C1193       C  0.26718919  0.01801381  0.85141053    -0.05400
C1194       C  0.23214660  0.01246831  0.85260157    -0.32800
C1195       C  0.20979075  0.02582072  0.83237107     0.36400
C1196       C  0.22162781  0.04527490  0.80957538    -0.05800
C1197       C  0.25649381  0.04890062  0.80636271    -0.32700
C1198       C  0.27917049  0.03485383  0.82643529     0.36300
H1199       H  0.21928683  0.49340683  0.86924358     0.16700
O1200       O  0.17616883  0.01986172  0.83553767    -0.60200
H1201       H  0.26634240  0.06242670  0.78803307     0.16700
O1202       O  0.31303411  0.03809452  0.82181058    -0.60300
H1203       H  0.31807297  0.06093247  0.82347582     0.43700
H1204       H  0.17224769  0.99910120  0.82612742     0.43600
C1205       C  0.21953732  0.04728638  0.68545503    -0.05400
C1206       C  0.22080564  0.05635355  0.65579416    -0.32800
C1207       C  0.24147996  0.04026674  0.63598498     0.36400
C1208       C  0.26311622  0.01566990  0.64611559    -0.05800
C1209       C  0.25939643  0.00562196  0.67573102    -0.32700
C1210       C  0.23847815  0.02128678  0.69514712     0.36300
H1211       H  0.20505431  0.07540618  0.64775683     0.16700
O1212       O  0.23525631  0.54483545  0.60726446    -0.60200
H1213       H  0.27202594  0.98498799  0.68430776     0.16700
O1214       O  0.23659596  0.01074266  0.72376348    -0.60300
H1215       H  0.25365176  0.02319570  0.73482095     0.43700
H1216       H  0.24083000  0.56757893  0.60537531     0.43600
C1217       C  0.01319086  0.01922730  0.64430234    -0.05400
C1218       C  0.03543023  0.00274393  0.66334919    -0.32800
C1219       C  0.05717444  0.01794836  0.68274099     0.36400
C1220       C  0.05682620  0.05107385  0.68514948    -0.05800
C1221       C  0.03326130  0.06801358  0.66816494    -0.32700
C1222       C  0.01152417  0.05263307  0.64790456     0.36300
H1223       H  0.03724454  0.47842925  0.65919171     0.16700
O1224       O  0.07783713  0.99969259  0.70020519    -0.60200
H1225       H  0.03149221  0.09333386  0.67066432     0.16700
O1226       O  0.98696553  0.07025325  0.63434358    -0.60300
H1227       H  0.99889035  0.08623911  0.62224702     0.43700
H1228       H  0.09683851  0.99384379  0.68743665     0.43600
C1229       C  0.17528627  0.23314988  0.64443245    -0.05400
C1230       C  0.18086143  0.23575590  0.67532527    -0.32800
C1231       C  0.16640839  0.21531556  0.69550631     0.36400
C1232       C  0.14710070  0.18977255  0.68579976    -0.05800
C1233       C  0.13847240  0.18781963  0.65577160    -0.32700
C1234       C  0.15207726  0.20943709  0.63514678     0.36300
H1235       H  0.19872699  0.25174039  0.68502831     0.16700
O1236       O  0.17435991  0.21863545  0.72488161    -0.60200
H1237       H  0.12333387  0.16822850  0.64796791     0.16700
O1238       O  0.14457941  0.20563362  0.60577931    -0.60300
H1239       H  0.15587758  0.18587458  0.59994830     0.43700
H1240       H  0.15665273  0.23243015  0.73284783     0.43600
C1241       C  0.15278510  0.18117553  0.81659830    -0.05400
C1242       C  0.14636550  0.21348650  0.81307452    -0.32800
C1243       C  0.15853064  0.23554896  0.83384465     0.36400
C1244       C  0.17849518  0.22560814  0.85854195    -0.05800
C1245       C  0.17865319  0.19283582  0.86455386    -0.32700
C1246       C  0.16768362  0.17091778  0.84329566     0.36300
H1247       H  0.13434565  0.22196472  0.79300051     0.16700
O1248       O  0.15482148  0.26700729  0.82752974    -0.60200
H1249       H  0.18913577  0.18360783  0.88487708     0.16700
O1250       O  0.17233225  0.13933245  0.84856688    -0.60300
H1251       H  0.19619476  0.13530390  0.84390425     0.43700
H1252       H  0.13254061  0.27264289  0.83539555     0.43600
C1253       C  0.22053802  0.44680669  0.56084993    -0.05400
C1254       C  0.21995933  0.43848849  0.59072745    -0.32800
C1255       C  0.23977598  0.45499982  0.61155180     0.36400
C1256       C  0.26199278  0.47962413  0.60247028    -0.05800
C1257       C  0.26018595  0.48876041  0.57242115    -0.32700
C1258       C  0.24040830  0.47252035  0.55196156     0.36300
H1259       H  0.20321193  0.41993505  0.59813254     0.16700
O1260       O  0.23665467  0.44750493  0.64089452    -0.60200
H1261       H  0.27622286  0.01043628  0.56368593     0.16700
O1262       O  0.24075645  0.48202056  0.52295100    -0.60300
H1263       H  0.22738391  0.00177098  0.52107803     0.43700
H1264       H  0.24314476  0.42503049  0.64291419     0.43600
C1265       C  0.22441829  0.46176600  0.94259591    -0.05400
C1266       C  0.25393414  0.44567737  0.93539030    -0.32800
C1267       C  0.27788011  0.45950631  0.91710727     0.36400
C1268       C  0.27135167  0.48922986  0.90379006    -0.05800
C1269       C  0.24611150  0.50773059  0.91679607    -0.32700
C1270       C  0.22174793  0.49382187  0.93475882     0.36300
H1271       H  0.25830297  0.42188594  0.94335063     0.16700
O1272       O  0.30686215  0.44325390  0.91185360    -0.60200
H1273       H  0.24261612  0.53201807  0.91003966     0.16700
O1274       O  0.19538460  0.51168484  0.94416296    -0.60300
H1275       H  0.17919157  0.51211572  0.92737166     0.43700
H1276       H  0.32124300  0.44662373  0.92956347     0.43600
C1277       C  0.05899853  0.44660046  0.56127788    -0.05400
C1278       C  0.02437268  0.44026475  0.56160997    -0.32800
C1279       C  0.00279202  0.45683814  0.58042767     0.36400
C1280       C  0.01561114  0.48049834  0.59970429    -0.05800
C1281       C  0.05040929  0.48719291  0.59787772    -0.32700
C1282       C  0.07184607  0.46981556  0.58043148     0.36300
H1283       H  0.01368141  0.42320031  0.54647181     0.16700
O1284       O  0.96896867  0.45081603  0.57865769    -0.60200
H1285       H  0.06068534  0.00426074  0.61277577     0.16700
O1286       O  0.10551992  0.47685375  0.58162552    -0.60300
H1287       H  0.11529532  0.46154059  0.59591854     0.43700
H1288       H  0.96605230  0.42841647  0.58456678     0.43600
C1289       C  0.14864699  0.32191722  0.92496083    -0.05400
C1290       C  0.14157362  0.28982193  0.92991218    -0.32800
C1291       C  0.15567545  0.26635460  0.91189282     0.36400
C1292       C  0.17811948  0.27486865  0.88895492    -0.05800
C1293       C  0.17877363  0.30708736  0.88069984    -0.32700
C1294       C  0.16528355  0.33035250  0.89885619     0.36300
H1295       H  0.12772002  0.28270231  0.94926579     0.16700
O1296       O  0.15013140  0.23517058  0.91865704    -0.60200
H1297       H  0.19133436  0.31489389  0.86098718     0.16700
O1298       O  0.17021857  0.36149174  0.89169874    -0.60300
H1299       H  0.14933169  0.36804814  0.88127332     0.43700
H1300       H  0.16212383  0.23124678  0.93760921     0.43600
C1301       C  0.18118936  0.27489697  0.60079464    -0.05400
C1302       C  0.14601468  0.27938888  0.59831603    -0.32800
C1303       C  0.13225895  0.30032970  0.57688081     0.36400
C1304       C  0.15376665  0.31808443  0.55859143    -0.05800
C1305       C  0.18842949  0.31517571  0.56278673    -0.32700
C1306       C  0.20205544  0.29356101  0.58227081     0.36300
H1307       H  0.12906274  0.26633505  0.61230564     0.16700
O1308       O  0.09809943  0.30275567  0.57372938    -0.60200
H1309       H  0.20587735  0.32910714  0.54989037     0.16700
O1310       O  0.23641140  0.29060028  0.58272557    -0.60300
H1311       H  0.24239380  0.28086949  0.56368567     0.43700
H1312       H  0.09143897  0.28520753  0.56052550     0.43600
C1313       C  0.05593991  0.05752326  0.81210005    -0.05400
C1314       C  0.02185516  0.06554208  0.81358659    -0.32800
C1315       C  0.00014256  0.04956431  0.83315821     0.36400
C1316       C  0.01276358  0.02590664  0.85272924    -0.05800
C1317       C  0.04675129  0.01717619  0.84920783    -0.32700
C1318       C  0.06808447  0.03314649  0.83027286     0.36300
H1319       H  0.01167433  0.08320101  0.79864168     0.16700
O1320       O  0.96642653  0.05615842  0.83206927    -0.60200
H1321       H  0.05756945  0.99714722  0.86058477     0.16700
O1322       O  0.10101499  0.02396018  0.82920189    -0.60300
H1323       H  0.11287739  0.03746225  0.84377656     0.43700
H1324       H  0.96434779  0.07913905  0.83548280     0.43600
C1325       C  0.05237511  0.45001212  0.93535063    -0.05400
C1326       C  0.05359968  0.48308325  0.93431831    -0.32800
C1327       C  0.03315912  0.50047899  0.91540527     0.36400
C1328       C  0.01016028  0.48535263  0.89594458    -0.05800
C1329       C  0.00701023  0.45207654  0.89863761    -0.32700
C1330       C  0.02802742  0.43452008  0.91784178     0.36300
H1331       H  0.07086955  0.49621555  0.94825250     0.16700
O1332       O  0.03608723  0.53272852  0.91597567    -0.60200
H1333       H  0.98796683  0.43926861  0.88648313     0.16700
O1334       O  0.02443861  0.40238023  0.91921018    -0.60300
H1335       H  0.00687165  0.39852985  0.93412989     0.43700
H1336       H  0.05883259  0.53773884  0.90854401     0.43600
C1337       C  0.92362367  0.05089947  0.56268567    -0.05400
C1338       C  0.91087889  0.02653885  0.58026424    -0.32800
C1339       C  0.93149763  0.00865196  0.59892769     0.36400
C1340       C  0.96647550  0.01599535  0.60207950    -0.05800
C1341       C  0.97952812  0.03883541  0.58240719    -0.32700
C1342       C  0.95854712  0.05656246  0.56342577     0.36300
H1343       H  0.88449236  0.02026591  0.57888744     0.16700
O1344       O  0.91742028  0.98211661  0.61130696    -0.60200
H1345       H  0.00629201  0.04351386  0.58232675     0.16700
O1346       O  0.97266872  0.07881845  0.54529745    -0.60300
H1347       H  0.97756482  0.06755784  0.52676284     0.43700
H1348       H  0.89858777  0.98946794  0.62359233     0.43600
C1349       C  0.92429450  0.05463822  0.93718910    -0.05400
C1350       C  0.94701285  0.07297540  0.92080152    -0.32800
C1351       C  0.96951861  0.05901357  0.90101301     0.36400
C1352       C  0.96862137  0.02585567  0.89633287    -0.05800
C1353       C  0.94715182  0.00784114  0.91445820    -0.32700
C1354       C  0.92494168  0.02158075  0.93382345     0.36300
H1355       H  0.94785185  0.09830489  0.92365556     0.16700
O1356       O  0.99264056  0.07804376  0.88744343    -0.60200
H1357       H  0.94640629  0.98239564  0.91248608     0.16700
O1358       O  0.90411433  0.00197921  0.94947248    -0.60300
H1359       H  0.88456995  0.99802613  0.93620874     0.43700
H1360       H  0.00741008  0.08633181  0.90338615     0.43600
C1361       C  0.71702858  0.01349716  0.89644283    -0.05400
C1362       C  0.73779578  0.03767712  0.88478430    -0.32800
C1363       C  0.76011077  0.05475315  0.90298593     0.36400
C1364       C  0.76032068  0.04939069  0.93353553    -0.05800
C1365       C  0.73628022  0.02952357  0.94571383    -0.32700
C1366       C  0.71383118  0.01281840  0.92789271     0.36300
H1367       H  0.73874651  0.04140774  0.86115910     0.16700
O1368       O  0.78205839  0.07592887  0.89069462    -0.60200
H1369       H  0.73454795  0.02720430  0.96947887     0.16700
O1370       O  0.68844658  0.99702063  0.94193729    -0.60300
H1371       H  0.67170857  0.01330156  0.94694737     0.43700
H1372       H  0.80147749  0.06316043  0.88442877     0.43600
C1373       C  0.75619986  0.06140990  0.56162302    -0.05400
C1374       C  0.72479734  0.04972775  0.55325415    -0.32800
C1375       C  0.70498128  0.03289713  0.57330059     0.36400
C1376       C  0.71721550  0.02647948  0.60256143    -0.05800
C1377       C  0.74561051  0.04404593  0.61192825    -0.32700
C1378       C  0.76599065  0.05985623  0.59144751     0.36300
H1379       H  0.71612688  0.05246212  0.53063315     0.16700
O1380       O  0.67340402  0.02368309  0.56416867    -0.60200
H1381       H  0.75390869  0.04296834  0.63472619     0.16700
O1382       O  0.79579434  0.07302412  0.60065472    -0.60300
H1383       H  0.81259811  0.05595243  0.59904950     0.43700
H1384       H  0.67649366  0.01035464  0.54652029     0.43600
C1385       C  0.93148202  0.44812620  0.68418795    -0.05400
C1386       C  0.93101803  0.48111536  0.68226091    -0.32800
C1387       C  0.95035030  0.49736417  0.66202755     0.36400
C1388       C  0.97181566  0.48097032  0.64267166    -0.05800
C1389       C  0.97407896  0.44784434  0.64602871    -0.32700
C1390       C  0.95351568  0.43142422  0.66599510     0.36300
H1391       H  0.91512575  0.49495152  0.69637794     0.16700
O1392       O  0.94772947  0.52964442  0.66102973    -0.60200
H1393       H  0.99170207  0.43435488  0.63344086     0.16700
O1394       O  0.95534841  0.39918966  0.66753927    -0.60300
H1395       H  0.93860363  0.39149331  0.65287567     0.43700
H1396       H  0.92487926  0.53420977  0.65321346     0.43600
C1397       C  0.92607069  0.45044853  0.81241173    -0.05400
C1398       C  0.91147623  0.47400036  0.82942392    -0.32800
C1399       C  0.93036669  0.49247150  0.84881845     0.36400
C1400       C  0.96530138  0.48649487  0.85336537    -0.05800
C1401       C  0.98000202  0.46336725  0.83523604    -0.32700
C1402       C  0.96079523  0.44521817  0.81539171     0.36300
H1403       H  0.88507118  0.47950345  0.82666188     0.11100
O1404       O  0.91659946  0.01984490  0.85958584    -0.60200
H1405       H  0.00683477  0.45940484  0.83645443     0.16700
O1406       O  0.97666020  0.42400240  0.79771651    -0.60300
H1407       H  0.97762890  0.40418232  0.80941724     0.43700
H1408       H  0.89746145  0.01258100  0.87173244     0.43600
C1409       C  0.76715509  0.44805700  0.81012456    -0.05400
C1410       C  0.73446449  0.43689407  0.81415199    -0.32800
C1411       C  0.71350776  0.45050502  0.83503456     0.36400
C1412       C  0.72473506  0.47667631  0.85236256    -0.05800
C1413       C  0.75923008  0.48466578  0.85021463    -0.32700
C1414       C  0.77969543  0.47164858  0.82879733     0.36300
H1415       H  0.72462458  0.41812631  0.80039909     0.16700
O1416       O  0.68117820  0.43931697  0.83698696    -0.60200
H1417       H  0.77167877  0.50059050  0.86503041     0.16700
O1418       O  0.81255567  0.48134315  0.82715803    -0.60300
H1419       H  0.81192782  0.50162298  0.81614015     0.43700
H1420       H  0.68303903  0.41838749  0.84675850     0.43600
C1421       C  0.77050534  0.44872695  0.67602590    -0.05400
C1422       C  0.73615671  0.44194885  0.67514918    -0.32800
C1423       C  0.71447968  0.45871313  0.65637957     0.36400
C1424       C  0.72692906  0.48299401  0.63737167    -0.05800
C1425       C  0.76218235  0.48511231  0.63467407    -0.32700
C1426       C  0.78370511  0.46943239  0.65459945     0.36300
H1427       H  0.72550076  0.42521104  0.69061956     0.16700
O1428       O  0.68069839  0.45268158  0.65826073    -0.60200
H1429       H  0.77372507  0.49924790  0.61776601     0.16700
O1430       O  0.81768875  0.47442734  0.65280559    -0.60300
H1431       H  0.82176405  0.49524184  0.66206490     0.43700
H1432       H  0.67367786  0.46123610  0.67750833     0.43600
C1433       C  0.76458201  0.23728762  0.85873015    -0.05400
C1434       C  0.75872825  0.20456016  0.86281507    -0.32800
C1435       C  0.73652699  0.18776704  0.84439584     0.36400
C1436       C  0.71809724  0.20368588  0.82222638    -0.05800
C1437       C  0.72163819  0.23645083  0.81969444    -0.32700
C1438       C  0.74378024  0.25315622  0.83774671     0.36300
H1439       H  0.77046405  0.19159400  0.88065831     0.16700
O1440       O  0.73239993  0.15597642  0.84889847    -0.60200
H1441       H  0.70757897  0.24954263  0.80311286     0.16700
O1442       O  0.74606193  0.28517975  0.83366747    -0.60300
H1443       H  0.72478527  0.29384533  0.84127566     0.43700
H1444       H  0.75151896  0.14598907  0.83879379     0.43600
C1445       C  0.76537341  0.27484213  0.89810587    -0.05400
C1446       C  0.74682458  0.25540283  0.91764751    -0.32800
C1447       C  0.72343374  0.26729895  0.93708492     0.36400
C1448       C  0.71765717  0.29989218  0.93832518    -0.05800
C1449       C  0.73445863  0.31965327  0.91820434    -0.32700
C1450       C  0.75756419  0.30756138  0.89782247     0.36300
H1451       H  0.75099201  0.23019659  0.91825026     0.16700
O1452       O  0.70741056  0.24661799  0.95562776    -0.60200
H1453       H  0.72924659  0.34471046  0.91786462     0.16700
O1454       O  0.76960455  0.32749872  0.87645697    -0.60300
H1455       H  0.78006593  0.34557411  0.88694880     0.43700
H1456       H  0.68788102  0.23859047  0.94410077     0.43600
C1457       C  0.81304452  0.27642420  0.85621970    -0.05400
C1458       C  0.81755319  0.26589691  0.82690258    -0.32800
C1459       C  0.83101244  0.28561458  0.80529025     0.36400
C1460       C  0.84260953  0.31572219  0.81281415    -0.05800
C1461       C  0.84497617  0.32378493  0.84273358    -0.32700
C1462       C  0.83176178  0.30352531  0.86457267     0.36300
H1463       H  0.80867571  0.24295811  0.81991206     0.16700
O1464       O  0.83155410  0.27572316  0.77654862    -0.60200
H1465       H  0.85532666  0.34645253  0.84905013     0.16700
O1466       O  0.83492063  0.31186704  0.89357227    -0.60300
H1467       H  0.85752669  0.30444871  0.89975117     0.43700
H1468       H  0.80854070  0.27942390  0.76869389     0.43600
C1469       C  0.81482321  0.23679423  0.89698145    -0.05400
C1470       C  0.82985219  0.20965871  0.88511619    -0.32800
C1471       C  0.84191290  0.18560494  0.90379200     0.36400
C1472       C  0.84312817  0.19022863  0.93439289    -0.05800
C1473       C  0.83602265  0.22001575  0.94551604    -0.32700
C1474       C  0.82218530  0.24343777  0.92718613     0.36300
H1475       H  0.82802105  0.20513075  0.86169342     0.16700
O1476       O  0.85055130  0.15705608  0.89214994    -0.60200
H1477       H  0.83842547  0.22431588  0.96897941     0.16700
O1478       O  0.81573147  0.27245916  0.93911444    -0.60300
H1479       H  0.80022522  0.26870390  0.95574284     0.43700
H1480       H  0.82924006  0.14493135  0.89071171     0.43600
C1481       C  0.76148123  0.26104938  0.60607837    -0.05400
C1482       C  0.72631028  0.25604205  0.60777270    -0.32800
C1483       C  0.70380444  0.27052553  0.58809138     0.36400
C1484       C  0.71588002  0.28943956  0.56493115    -0.05800
C1485       C  0.75065425  0.29222676  0.56129263    -0.32700
C1486       C  0.77319862  0.27750782  0.58079524     0.36300
H1487       H  0.71550677  0.24057196  0.62411735     0.16700
O1488       O  0.66999325  0.26595846  0.59184381    -0.60200
H1489       H  0.76061192  0.30563546  0.54292942     0.16700
O1490       O  0.80690929  0.28087212  0.57580849    -0.60300
H1491       H  0.81166403  0.26688747  0.55894475     0.43700
H1492       H  0.66341781  0.28153093  0.60690037     0.43600
C1493       C  0.76765527  0.23158759  0.65569832    -0.05400
C1494       C  0.77071316  0.19938725  0.66372534    -0.32800
C1495       C  0.74918452  0.18531858  0.68409866     0.36400
C1496       C  0.72468021  0.20347971  0.69803861    -0.05800
C1497       C  0.72431944  0.23612555  0.69325961    -0.32700
C1498       C  0.74593627  0.25033577  0.67293959     0.36300
H1499       H  0.78941136  0.18445863  0.65400206     0.16700
O1500       O  0.75119682  0.15341186  0.68897966    -0.60200
H1501       H  0.70696264  0.25078110  0.70517708     0.16700
O1502       O  0.74477273  0.28248523  0.66921344    -0.60300
H1503       H  0.72189458  0.28732039  0.66161537     0.43700
H1504       H  0.76956489  0.15070379  0.70373126     0.43600
C1505       C  0.84158669  0.31810579  0.67930814    -0.05400
C1506       C  0.84943684  0.28625554  0.68341398    -0.32800
C1507       C  0.83403179  0.26305094  0.66573997     0.36400
C1508       C  0.81053281  0.27160188  0.64317147    -0.05800
C1509       C  0.80563917  0.30422707  0.63794398    -0.32700
C1510       C  0.82132699  0.32703401  0.65519126     0.36300
H1511       H  0.86485691  0.27905768  0.70210186     0.16700
O1512       O  0.84051528  0.23189969  0.67181679    -0.60200
H1513       H  0.78718057  0.31302023  0.62247811     0.16700
O1514       O  0.81325772  0.35813466  0.65052196    -0.60300
H1515       H  0.83213794  0.36702031  0.63904198     0.43700
H1516       H  0.83003699  0.22751086  0.69115038     0.43600
C1517       C  0.80503119  0.22074985  0.61068253    -0.05400
C1518       C  0.78420989  0.19685588  0.59885044    -0.32800
C1519       C  0.79571149  0.17525753  0.57866377     0.36400
C1520       C  0.82838270  0.17792431  0.56753416    -0.05800
C1521       C  0.85046314  0.20003198  0.58009566    -0.32700
C1522       C  0.83920897  0.22143795  0.60151713     0.36300
H1523       H  0.75801873  0.19531364  0.60489807     0.16700
O1524       O  0.77395664  0.15234831  0.56879997    -0.60200
H1525       H  0.87587731  0.20206053  0.57204131     0.16700
O1526       O  0.86146079  0.24368941  0.61170896    -0.60300
H1527       H  0.86474363  0.25871762  0.59514809     0.43700
H1528       H  0.77588014  0.13495991  0.58344265     0.43600
C1529       C  0.78839796  0.74873206  0.12688978    -0.02400
C1530       C  0.78457569  0.75886607  0.37800443    -0.02400
Fe1531     Fe  0.80289818  0.87991848  0.24614032     1.65800
Fe1532     Fe  0.84651877  0.94692984  0.24846218     1.73200
Fe1533     Fe  0.88820206  0.87741868  0.25051441     1.54400
O1534       O  0.87167502  0.85274374  0.28712668    -0.81600
O1535       O  0.88863459  0.94887927  0.22310943    -0.79900
O1536       O  0.81887073  0.84332723  0.27274204    -0.84100
O1537       O  0.81797908  0.85737370  0.20952775    -0.79000
O1538       O  0.91219505  0.90959367  0.27896614    -0.80800
O1539       O  0.81850880  0.94985056  0.20995854    -0.83500
C1540       C  0.84381551  0.84089892  0.20512292     0.97300
C1541       C  0.84393421  0.83821979  0.28961088     1.04700
O1542       O  0.84604443  0.90141958  0.24846987    -1.12500
O1543       O  0.80460502  0.95050566  0.27498703    -0.74900
O1544       O  0.78527810  0.90184729  0.28297260    -0.78400
O1545       O  0.87003732  0.84231091  0.22156807    -0.79100
C1546       C  0.78640010  0.93095034  0.28903847     0.96200
O1547       O  0.78026485  0.91298194  0.21857267    -0.77100
O1548       O  0.87492131  0.94761332  0.28604035    -0.82200
C1549       C  0.90823196  0.93040301  0.20978251     0.98800
C1550       C  0.90277968  0.93455804  0.29195727     1.04700
O1551       O  0.90819214  0.90083779  0.21449040    -0.77900
C1552       C  0.79094605  0.93632702  0.20368037     1.03000
Fe1553     Fe  0.80115597  0.62604903  0.99050272     1.65800
Fe1554     Fe  0.84228841  0.55754155  0.50087898     1.73200
Fe1555     Fe  0.88516476  0.62650286  0.49781590     1.54400
O1556       O  0.86801335  0.66231189  0.46944035    -0.81600
O1557       O  0.87202763  0.56028566  0.03797441    -0.79900
O1558       O  0.81864361  0.64539365  0.45249975    -0.84100
O1559       O  0.81788093  0.66323851  0.01594145    -0.79000
O1560       O  0.90338953  0.60151659  0.46215558    -0.80800
O1561       O  0.80149234  0.55777051  0.02852112    -0.83500
C1562       C  0.83986300  0.66501292  0.03641829     0.97300
C1563       C  0.84356995  0.66385887  0.45118782     1.04700
O1564       O  0.84262306  0.60281705  0.49619509    -1.12500
O1565       O  0.81243632  0.55037626  0.46400412    -0.74900
O1566       O  0.77825812  0.59170608  0.46402572    -0.78400
O1567       O  0.86822500  0.65132683  0.03477285    -0.79100
C1568       C  0.78676465  0.56499788  0.45453090     0.96200
O1569       O  0.77973360  0.60619041  0.02781009    -0.77100
O1570       O  0.88365959  0.55376917  0.47428980    -0.82200
C1571       C  0.90135618  0.57152247  0.04072710     0.98800
C1572       C  0.90279350  0.57155174  0.45914995     1.04700
O1573       O  0.91074683  0.59533635  0.02587751    -0.77900
C1574       C  0.78134244  0.57831581  0.03818406     1.03000
C1575       C  0.98910482  0.00733766  0.37389580    -0.02400
Fe1576     Fe  0.18420879  0.88573961  0.99343989     1.65800
Fe1577     Fe  0.13752796  0.95171116  0.49800435     1.73200
Fe1578     Fe  0.09790078  0.87958579  0.49558785     1.54400
O1579       O  0.11750661  0.84740505  0.46441456    -0.81600
O1580       O  0.10624607  0.94959559  0.03280140    -0.79900
O1581       O  0.16926494  0.86441650  0.45408673    -0.84100
O1582       O  0.16944492  0.84718513  0.01681425    -0.79000
O1583       O  0.07597312  0.90593531  0.46097775    -0.80800
O1584       O  0.17793178  0.95475197  0.02763935    -0.83500
C1585       C  0.14610840  0.83991686  0.03425891     0.97300
C1586       C  0.14413205  0.84657932  0.44884671     1.04700
O1587       O  0.13919739  0.90587789  0.49545047    -1.12500
O1588       O  0.17012889  0.96015712  0.46350594    -0.74900
O1589       O  0.20600296  0.92110546  0.47021948    -0.78400
O1590       O  0.11698742  0.85182696  0.03146232    -0.79100
C1591       C  0.19849613  0.94761721  0.45922896     0.96200
O1592       O  0.20121486  0.90708150  0.03225253    -0.77100
O1593       O  0.09806842  0.95359774  0.46906738    -0.82200
C1594       C  0.08104432  0.93287238  0.03969563     0.98800
C1595       C  0.07727417  0.93562577  0.45592186     1.04700
O1596       O  0.07404367  0.90711404  0.02667503    -0.77900
C1597       C  0.19889618  0.93599177  0.03949394     1.03000
Fe1598     Fe  0.18344841  0.61610890  0.24829608     1.65800
Fe1599     Fe  0.13618511  0.55099910  0.25011809     1.73200
Fe1600     Fe  0.09783992  0.62291897  0.24775307     1.54400
O1601       O  0.11865799  0.65602896  0.27793249    -0.81600
O1602       O  0.10615464  0.55072463  0.21356307    -0.79900
O1603       O  0.17233851  0.64207031  0.28534837    -0.84100
O1604       O  0.16841296  0.65244852  0.22121731    -0.79000
O1605       O  0.07639591  0.59920419  0.28324646    -0.80800
O1606       O  0.17707492  0.54409306  0.22334813    -0.83500
C1607       C  0.14234794  0.66153805  0.20732351     0.97300
C1608       C  0.14672147  0.65832658  0.29196597     1.04700
O1609       O  0.13890050  0.59681837  0.24879694    -1.12500
O1610       O  0.16623425  0.54787287  0.28700506    -0.74900
O1611       O  0.20600687  0.58230049  0.27529852    -0.78400
O1612       O  0.11362543  0.64949545  0.21165634    -0.79100
C1613       C  0.19565414  0.55886367  0.29025516     0.96200
O1614       O  0.19737885  0.59126240  0.21110245    -0.77100
O1615       O  0.09529445  0.55042654  0.27703730    -0.82200
C1616       C  0.08010176  0.56615072  0.20638234     0.98800
C1617       C  0.07637029  0.56996781  0.28959007     1.04700
O1618       O  0.07281264  0.59255668  0.21807496    -0.77900
C1619       C  0.19615095  0.56151810  0.20802658     1.03000
C1620       C  0.20031281  0.75127163  0.37377684    -0.02400
C1621       C  0.19800100  0.74896748  0.12236128    -0.02400
C1622       C  0.99121990  0.99719984  0.12300200    -0.02400
Fe1623     Fe  0.30336134  0.86734866  0.24722146     1.65800
Fe1624     Fe  0.35016372  0.80216349  0.24375452     1.73200
Fe1625     Fe  0.38934160  0.87444010  0.25114796     1.54400
O1626       O  0.37158893  0.90753978  0.22053046    -0.81600
O1627       O  0.38191441  0.79929186  0.27899701    -0.79900
O1628       O  0.31714416  0.89604702  0.21309892    -0.84100
O1629       O  0.31669628  0.90037544  0.27761062    -0.79000
O1630       O  0.41301887  0.85172665  0.21637059    -0.80800
O1631       O  0.31067226  0.79335322  0.27201668    -0.83500
C1632       C  0.34194577  0.90980748  0.29232055     0.97300
C1633       C  0.34387235  0.91076924  0.20654115     1.04700
O1634       O  0.34787847  0.84806276  0.24751222    -1.12500
O1635       O  0.31926645  0.80043160  0.20745691    -0.74900
O1636       O  0.28198609  0.83747965  0.21634621    -0.78400
O1637       O  0.37156474  0.90091515  0.28656686    -0.79100
C1638       C  0.29190738  0.81415352  0.20158052     0.96200
O1639       O  0.28677679  0.83943865  0.28175571    -0.77100
O1640       O  0.38906280  0.80418218  0.21508534    -0.82200
C1641       C  0.40534676  0.81580313  0.29018768     0.98800
C1642       C  0.41015534  0.82412377  0.20581604     1.04700
O1643       O  0.41167779  0.84387564  0.28170746    -0.77900
C1644       C  0.29016581  0.81003570  0.28628272     1.03000
Fe1645     Fe  0.30133419  0.62839369  0.49933678     1.65800
Fe1646     Fe  0.34435809  0.69584310  0.00976765     1.73200
Fe1647     Fe  0.38763121  0.62598300  0.00440659     1.54400
O1648       O  0.36966218  0.59270877  0.03437878    -0.81600
O1649       O  0.37951799  0.70192261  0.47662963    -0.79900
O1650       O  0.31364362  0.59809155  0.03398437    -0.84100
O1651       O  0.31865788  0.59812974  0.46865547    -0.79000
O1652       O  0.40859987  0.65035058  0.03981008    -0.80800
O1653       O  0.30675503  0.70372160  0.47840848    -0.83500
C1654       C  0.34606984  0.58967797  0.45764049     0.97300
C1655       C  0.34066078  0.58641169  0.04442710     1.04700
O1656       O  0.34468893  0.64991001  0.00455002    -1.12500
O1657       O  0.30975316  0.69378524  0.04356270    -0.74900
O1658       O  0.27583965  0.65479563  0.02943301    -0.78400
O1659       O  0.37432395  0.59829677  0.46801754    -0.79100
C1660       C  0.28280851  0.67790763  0.04583146     0.96200
O1661       O  0.28601245  0.65723858  0.46453432    -0.77100
O1662       O  0.38158533  0.69613421  0.04145532    -0.82200
C1663       C  0.40327399  0.68552165  0.46615200     0.98800
C1664       C  0.40445418  0.67768680  0.05032586     1.04700
O1665       O  0.40958881  0.65751117  0.47482858    -0.77900
C1666       C  0.28811511  0.68700421  0.46172639     1.03000
C1667       C  0.28996451  0.50194828  0.37613237    -0.02400
C1668       C  0.28569574  0.49707320  0.12543764    -0.02400
C1669       C  0.48868890  0.74553826  0.37582136    -0.02400
C1670       C  0.69802234  0.99007838  0.37512904    -0.02400
Fe1671     Fe  0.68493210  0.63428461  0.25899963     1.65800
Fe1672     Fe  0.63644701  0.69923503  0.24991111     1.73200
Fe1673     Fe  0.59915579  0.62621432  0.25205677     1.54400
O1674       O  0.61926855  0.59817452  0.21851160    -0.81600
O1675       O  0.59558668  0.70021750  0.27678822    -0.79900
O1676       O  0.67446803  0.60042447  0.22790732    -0.84100
O1677       O  0.66978537  0.60531933  0.29284676    -0.79000
O1678       O  0.57515540  0.65336939  0.22014258    -0.80800
O1679       O  0.66658911  0.70742891  0.28645853    -0.83500
C1680       C  0.64317868  0.59013685  0.29835421     0.97300
C1681       C  0.64935228  0.58950417  0.21363775     1.04700
O1682       O  0.64017863  0.65320857  0.25362312    -1.12500
O1683       O  0.67703582  0.70468142  0.22271477    -0.74900
O1684       O  0.70729287  0.66097890  0.22613029    -0.78400
O1685       O  0.61581534  0.59456622  0.28433422    -0.79100
C1686       C  0.70231963  0.68844419  0.21577013     0.96200
O1687       O  0.70032033  0.66586934  0.29072069    -0.77100
O1688       O  0.60583717  0.69680392  0.21303747    -0.82200
C1689       C  0.57513312  0.68180734  0.28951843     0.98800
C1690       C  0.58084781  0.67929313  0.20702815     1.04700
O1691       O  0.57505132  0.65214328  0.28487932    -0.77900
C1692       C  0.69085284  0.69291455  0.29880605     1.03000
C1693       C  0.70184787  0.50624346  0.12137475    -0.02400
Fe1694     Fe  0.67690377  0.86545477  0.50565319     1.65800
Fe1695     Fe  0.63158824  0.80101957  0.00380377     1.73200
Fe1696     Fe  0.59266606  0.87226936  0.00112989     1.54400
O1697       O  0.61436058  0.90745447  0.02931542    -0.81600
O1698       O  0.60104592  0.79970085  0.46766721    -0.79900
O1699       O  0.66108594  0.88390168  0.04489740    -0.84100
O1700       O  0.65992941  0.90481324  0.48321067    -0.79000
O1701       O  0.57306353  0.85029257  0.03774312    -0.80800
O1702       O  0.67254640  0.79738576  0.47565631    -0.83500
C1703       C  0.63931576  0.90621579  0.46175291     0.97300
C1704       C  0.64041463  0.90637550  0.04622517     1.04700
O1705       O  0.63322222  0.84611545  0.00318186    -1.12500
O1706       O  0.66205996  0.79692795  0.04063626    -0.74900
O1707       O  0.70158001  0.83103379  0.02871829    -0.78400
O1708       O  0.61056661  0.89349850  0.46339347    -0.79100
C1709       C  0.69155544  0.80765624  0.04367741     0.96200
O1710       O  0.69227770  0.84589166  0.46680564    -0.77100
O1711       O  0.59141185  0.80071275  0.03200908    -0.82200
C1712       C  0.57470485  0.81475677  0.46063686     0.98800
C1713       C  0.57373032  0.82125104  0.04492702     1.04700
O1714       O  0.56658452  0.84031559  0.47337335    -0.77900
C1715       C  0.69179768  0.81641752  0.46175049     1.03000
C1716       C  0.49375600  0.75077038  0.12778067    -0.02400
C1717       C  0.55371012  0.81001164  0.06960733    -0.05400
C1718       C  0.56999328  0.79368339  0.09240611    -0.32800
C1719       C  0.55176059  0.77691352  0.11343166     0.36400
C1720       C  0.51633124  0.77379136  0.11005348    -0.05800
C1721       C  0.50023002  0.79409470  0.08933745    -0.32700
C1722       C  0.51864884  0.81178543  0.06904156     0.36300
H1723       H  0.59719351  0.79363311  0.09373075     0.16700
O1724       O  0.56910111  0.76405120  0.13685169    -0.60200
H1725       H  0.47311063  0.79415107  0.08726106     0.16700
O1726       O  0.50216390  0.82872263  0.04747706    -0.60300
H1727       H  0.49823450  0.81365114  0.03115789     0.43700
H1728       H  0.57829232  0.78211072  0.14820077     0.43600
C1729       C  0.67940589  0.97928537  0.10376466    -0.05400
C1730       C  0.69883206  0.96376083  0.08248042    -0.32800
C1731       C  0.68535871  0.94194461  0.06319003     0.36400
C1732       C  0.65139803  0.93323214  0.06482803    -0.05800
C1733       C  0.63105382  0.94806059  0.08574678    -0.32700
C1734       C  0.64482672  0.97083002  0.10542209     0.36300
H1735       H  0.72528939  0.96928620  0.08027249     0.16700
O1736       O  0.70581503  0.92958182  0.04204363    -0.60200
H1737       H  0.60493503  0.94120038  0.08760477     0.16700
O1738       O  0.62453389  0.98366013  0.12629820    -0.60300
H1739       H  0.61947340  0.96629617  0.14032290     0.43700
H1740       H  0.72034019  0.91412334  0.05257196     0.43600
C1741       C  0.51342536  0.72718747  0.14799625    -0.05400
C1742       C  0.50615187  0.72393143  0.17829124    -0.32800
C1743       C  0.52736875  0.70709211  0.19733602     0.36400
C1744       C  0.55545488  0.69152235  0.18627654    -0.05800
C1745       C  0.56018054  0.69043502  0.15587055    -0.32700
C1746       C  0.53856542  0.70694415  0.13663175     0.36300
H1747       H  0.48468731  0.73529046  0.18785890     0.16700
O1748       O  0.52118294  0.70700401  0.22702708    -0.60200
H1749       H  0.58125600  0.67764140  0.14706758     0.16700
O1750       O  0.54474456  0.70586796  0.10703412    -0.60300
H1751       H  0.53563417  0.68524966  0.10044753     0.43700
H1752       H  0.53232491  0.72629576  0.23468102     0.43600
C1753       C  0.65694314  0.56517951  0.19113010    -0.05400
C1754       C  0.64328780  0.56595205  0.16237139    -0.32800
C1755       C  0.65609487  0.54637256  0.13988224     0.36400
C1756       C  0.68262442  0.52478085  0.14595835    -0.05800
C1757       C  0.69550629  0.52486873  0.17533207    -0.32700
C1758       C  0.68239100  0.54340327  0.19748001     0.36300
H1759       H  0.62405537  0.58304462  0.15682132     0.16700
O1760       O  0.64341575  0.54964246  0.11182980    -0.60200
H1761       H  0.71751055  0.51183849  0.18200595     0.16700
O1762       O  0.69653709  0.54154809  0.22522630    -0.60300
H1763       H  0.69224647  0.51968708  0.23219012     0.43700
H1764       H  0.65221635  0.57015419  0.10456728     0.43600
C1765       C  0.64640119  0.56317589  0.31883166    -0.05400
C1766       C  0.64734801  0.56682065  0.34949225    -0.32800
C1767       C  0.65974756  0.54248370  0.36797731     0.36400
C1768       C  0.67462298  0.51500457  0.35568837    -0.05800
C1769       C  0.66984380  0.51107653  0.32486119    -0.32700
C1770       C  0.65552686  0.53429056  0.30696266     0.36300
H1771       H  0.63970370  0.58894482  0.35906746     0.16700
O1772       O  0.65948453  0.54703619  0.39785541    -0.60200
H1773       H  0.67850188  0.49098757  0.31313322     0.16700
O1774       O  0.65397991  0.52974384  0.27707910    -0.60300
H1775       H  0.63155238  0.52028288  0.27323713     0.43700
H1776       H  0.63662891  0.54078072  0.40411169     0.43600
C1777       C  0.67987737  0.96393336  0.39296238    -0.05400
C1778       C  0.64458988  0.96268089  0.39632007    -0.32800
C1779       C  0.62997368  0.94236867  0.41734526     0.36400
C1780       C  0.65064233  0.92296168  0.43504878    -0.05800
C1781       C  0.68484535  0.92119418  0.42895519    -0.32700
C1782       C  0.69953500  0.94107290  0.40843932     0.36300
H1783       H  0.62835855  0.97846981  0.38401349     0.16700
O1784       O  0.59604515  0.94348352  0.42188926    -0.60200
H1785       H  0.70103870  0.90557369  0.44164786     0.16700
O1786       O  0.73391585  0.94074947  0.40663445    -0.60300
H1787       H  0.73934544  0.92129663  0.39567715     0.43700
H1788       H  0.58634492  0.92699289  0.40889593     0.43600
C1789       C  0.50910653  0.72579296  0.35325011    -0.05400
C1790       C  0.52997304  0.74352935  0.33433281    -0.32800
C1791       C  0.55033768  0.72971304  0.31352557     0.36400
C1792       C  0.55112969  0.69659093  0.31048091    -0.05800
C1793       C  0.52872082  0.67848869  0.32749185    -0.32700
C1794       C  0.50744125  0.69267454  0.34843896     0.36300
H1795       H  0.53133133  0.76893699  0.33634902     0.16700
O1796       O  0.56993140  0.74932454  0.29668610    -0.60200
H1797       H  0.52744434  0.65320461  0.32443625     0.16700
O1798       O  0.48350797  0.67441457  0.36193749    -0.60300
H1799       H  0.49522298  0.65552789  0.36987233     0.43700
H1800       H  0.55516130  0.75637536  0.28017583     0.43600
C1801       C  0.51274249  0.76548053  0.39601971    -0.05400
C1802       C  0.49899818  0.78967015  0.41355305    -0.32800
C1803       C  0.51881076  0.80741968  0.43331346     0.36400
C1804       C  0.55312374  0.80053328  0.43711446    -0.05800
C1805       C  0.56698381  0.77668222  0.41990670    -0.32700
C1806       C  0.54751627  0.75869010  0.40051136     0.36300
H1807       H  0.47243782  0.79484956  0.41193281     0.16700
O1808       O  0.50391626  0.83037986  0.44968911    -0.60200
H1809       H  0.59329610  0.77065617  0.42234661     0.16700
O1810       O  0.56304840  0.73374335  0.38728623    -0.60300
H1811       H  0.56927662  0.71880681  0.40334302     0.43700
H1812       H  0.50572689  0.84988469  0.43761328     0.43600
C1813       C  0.46581826  0.72731458  0.39811760    -0.05400
C1814       C  0.43251109  0.73769225  0.40322023    -0.32800
C1815       C  0.41206697  0.72394526  0.42448349     0.36400
C1816       C  0.42450067  0.69975174  0.44278147    -0.05800
C1817       C  0.45789568  0.69005409  0.43923669    -0.32700
C1818       C  0.47866130  0.70394574  0.41771516     0.36300
H1819       H  0.42183995  0.75757997  0.39150546     0.16700
O1820       O  0.37997454  0.73504201  0.42747359    -0.60200
H1821       H  0.46840808  0.67229644  0.45390036     0.16700
O1822       O  0.51201341  0.69595685  0.41712249    -0.60300
H1823       H  0.51300165  0.67259504  0.41704411     0.43700
H1824       H  0.36571156  0.72107221  0.41507086     0.43600
C1825       C  0.47234532  0.72889433  0.10694572    -0.05400
C1826       C  0.44563830  0.71102124  0.11919010    -0.32800
C1827       C  0.42365728  0.69312898  0.10143005     0.36400
C1828       C  0.42946019  0.69067148  0.07112686    -0.05800
C1829       C  0.45789537  0.70492787  0.05927976    -0.32700
C1830       C  0.47931163  0.72373789  0.07650864     0.36300
H1831       H  0.44062326  0.71249603  0.14254953     0.16700
O1832       O  0.39593629  0.67923613  0.11369590    -0.60200
H1833       H  0.46303862  0.70231247  0.03600495     0.16700
O1834       O  0.50800646  0.73493463  0.06353701    -0.60300
H1835       H  0.50055976  0.74795056  0.04642083     0.43700
H1836       H  0.40240695  0.65699042  0.11738775     0.43600
C1837       C  0.31339221  0.52807528  0.38919846    -0.05400
C1838       C  0.34034729  0.51873667  0.40805847    -0.32800
C1839       C  0.35457565  0.53943819  0.42898998     0.36400
C1840       C  0.34288121  0.57050169  0.43070293    -0.05800
C1841       C  0.31951568  0.58108683  0.40977824    -0.32700
C1842       C  0.30383978  0.56050883  0.39010570     0.36300
H1843       H  0.34812426  0.49434241  0.40870625     0.16700
O1844       O  0.37745601  0.52825798  0.44929839    -0.60200
H1845       H  0.31002067  0.60495189  0.41117960     0.16700
O1846       O  0.27577139  0.57173942  0.37576095    -0.60300
H1847       H  0.28376604  0.58858169  0.36223421     0.43700
H1848       H  0.36387350  0.51845242  0.46511559     0.43600
C1849       C  0.30935425  0.52101152  0.10952617    -0.05400
C1850       C  0.30912855  0.55363406  0.11565005    -0.32800
C1851       C  0.32197126  0.57542263  0.09547001     0.36400
C1852       C  0.33730065  0.56484172  0.06969638    -0.05800
C1853       C  0.34421964  0.53275394  0.06671400    -0.32700
C1854       C  0.33126448  0.51084340  0.08695586     0.36300
H1855       H  0.29717070  0.56278676  0.13501152     0.16700
O1856       O  0.31720863  0.60702866  0.10005425    -0.60200
H1857       H  0.35711558  0.52440496  0.04740229     0.16700
O1858       O  0.33877835  0.98084929  0.08158751    -0.60300
H1859       H  0.36061310  0.97505869  0.09081858     0.43700
H1860       H  0.33909439  0.61501667  0.10761600     0.43600
C1861       C  0.43201483  0.81324829  0.18199822    -0.05400
C1862       C  0.46679609  0.81275117  0.18598414    -0.32800
C1863       C  0.48681439  0.79364992  0.16818506     0.36400
C1864       C  0.47195859  0.77403113  0.14606420    -0.05800
C1865       C  0.43756167  0.77874855  0.13976019    -0.32700
C1866       C  0.41774004  0.79735042  0.15783853     0.36300
H1867       H  0.47829190  0.82544346  0.20416626     0.16700
O1868       O  0.52088120  0.79371260  0.17303179    -0.60200
H1869       H  0.42534587  0.76788973  0.12101138     0.16700
O1870       O  0.38390626  0.79892063  0.15237851    -0.60300
H1871       H  0.37500863  0.77881196  0.16036331     0.43700
H1872       H  0.52443402  0.78535255  0.19330282     0.43600
C1873       C  0.42631748  0.80016646  0.31319100    -0.05400
C1874       C  0.42131764  0.76779179  0.31790748    -0.32800
C1875       C  0.44136147  0.75074652  0.33739078     0.36400
C1876       C  0.46644421  0.76597982  0.35466905    -0.05800
C1877       C  0.47184588  0.79860885  0.34957547    -0.32700
C1878       C  0.45201051  0.81560614  0.32920433     0.36300
H1879       H  0.40216381  0.75489142  0.30578092     0.16700
O1880       O  0.43546245  0.71894996  0.34011678    -0.60200
H1881       H  0.49222775  0.81106518  0.36033384     0.16700
O1882       O  0.45871326  0.84698730  0.32460522    -0.60300
H1883       H  0.44459530  0.85826692  0.33893158     0.43700
H1884       H  0.44325392  0.70956321  0.32145143     0.43600
C1885       C  0.33428040  0.93108478  0.31733069    -0.05400
C1886       C  0.30241641  0.92771759  0.32952234    -0.32800
C1887       C  0.28903043  0.95046165  0.34770629     0.36400
C1888       C  0.30868280  0.97662667  0.35738727    -0.05800
C1889       C  0.34208709  0.97869906  0.34698608    -0.32700
C1890       C  0.35470276  0.95641930  0.32679138     0.36300
H1891       H  0.28637574  0.90805489  0.32332347     0.16700
O1892       O  0.25619909  0.94668461  0.35597101    -0.60200
H1893       H  0.35775736  0.99866882  0.35275705     0.16700
O1894       O  0.38576141  0.96107982  0.31479498    -0.60300
H1895       H  0.40182920  0.95183983  0.32928014     0.43700
H1896       H  0.24256642  0.94864275  0.33759190     0.43600
C1897       C  0.31219608  0.97624381  0.14186597    -0.05400
C1898       C  0.31372144  0.94391251  0.13486115    -0.32800
C1899       C  0.32700064  0.92219151  0.15496560     0.36400
C1900       C  0.34137588  0.93269805  0.18151911    -0.05800
C1901       C  0.34676065  0.96496554  0.18565465    -0.32700
C1902       C  0.33280450  0.98687405  0.16570580     0.36300
H1903       H  0.30280964  0.93478768  0.11472527     0.16700
O1904       O  0.32445657  0.89053423  0.14916415    -0.60200
H1905       H  0.35902293  0.97328268  0.20560860     0.16700
O1906       O  0.33699788  0.01852159  0.17096225    -0.60300
H1907       H  0.32580336  0.02272323  0.18993237     0.43700
H1908       H  0.30094560  0.88467283  0.15377554     0.43600
C1909       C  0.27007331  0.80159702  0.17765761    -0.05400
C1910       C  0.23655931  0.81137215  0.17522739    -0.32800
C1911       C  0.21393653  0.79596562  0.15627304     0.36400
C1912       C  0.22448991  0.76968438  0.13937831    -0.05800
C1913       C  0.25934522  0.76408589  0.13844172    -0.32700
C1914       C  0.28157399  0.77860324  0.15804362     0.36300
H1915       H  0.22722809  0.82993669  0.18916475     0.16700
O1916       O  0.18099831  0.80545013  0.15569073    -0.60200
H1917       H  0.27025272  0.74846311  0.12267351     0.16700
O1918       O  0.31463607  0.76999464  0.15761699    -0.60300
H1919       H  0.31576837  0.74970683  0.16860105     0.43700
H1920       H  0.17177190  0.79966832  0.17520836     0.43600
C1921       C  0.21431790  0.72231051  0.10354205    -0.05400
C1922       C  0.20697491  0.71954127  0.07298189    -0.32800
C1923       C  0.22835032  0.70348729  0.05436472     0.36400
C1924       C  0.25684179  0.68860072  0.06607147    -0.05800
C1925       C  0.25995798  0.68478681  0.09670030    -0.32700
C1926       C  0.23751404  0.70020514  0.11558957     0.36300
H1927       H  0.18594400  0.73159602  0.06275107     0.16700
O1928       O  0.22275723  0.70484084  0.02446863    -0.60200
H1929       H  0.28023725  0.67076251  0.10592606     0.16700
O1930       O  0.24002381  0.69566878  0.14558213    -0.60300
H1931       H  0.26390370  0.69921777  0.15114855     0.43700
H1932       H  0.20936639  0.68570307  0.01981238     0.43600
C1933       C  0.22425486  0.73565567  0.39767835    -0.05400
C1934       C  0.24471274  0.70995997  0.38931417    -0.32800
C1935       C  0.26476667  0.69330833  0.40982016     0.36400
C1936       C  0.26717419  0.70345324  0.43915514    -0.05800
C1937       C  0.25020795  0.73080530  0.44709389    -0.32700
C1938       C  0.22981519  0.74734863  0.42689403     0.36300
H1939       H  0.24420760  0.70190869  0.36671477     0.16700
O1940       O  0.28293009  0.66788970  0.40063887    -0.60200
H1941       H  0.25295554  0.73976420  0.46932328     0.16700
O1942       O  0.21679445  0.77545603  0.43610444    -0.60300
H1943       H  0.23626276  0.78934032  0.44067156     0.43700
H1944       H  0.26712599  0.64977381  0.40145935     0.43600
C1945       C  0.22540841  0.76630049  0.35101180    -0.05400
C1946       C  0.23027377  0.75278839  0.32281667    -0.32800
C1947       C  0.25143743  0.76656608  0.30194485     0.36400
C1948       C  0.26910964  0.79431716  0.30863501    -0.05800
C1949       C  0.26735232  0.80641480  0.33714586    -0.32700
C1950       C  0.24688716  0.79209656  0.35851477     0.36300
H1951       H  0.21835013  0.73090708  0.31652211     0.16700
O1952       O  0.25373241  0.75321199  0.27458098    -0.60200
H1953       H  0.28246592  0.82676736  0.34310522     0.16700
O1954       O  0.24848570  0.80319276  0.38683139    -0.60300
H1955       H  0.24325157  0.82602424  0.38567647     0.43700
H1956       H  0.27104994  0.73659897  0.27676792     0.43600
C1957       C  0.26487971  0.51519203  0.35239233    -0.05400
C1958       C  0.22985686  0.50956433  0.35372550    -0.32800
C1959       C  0.20730784  0.52373006  0.33409529     0.36400
C1960       C  0.21908232  0.54337703  0.31139355    -0.05800
C1961       C  0.25391259  0.54665588  0.30782251    -0.32700
C1962       C  0.27667751  0.53228062  0.32752814     0.36300
H1963       H  0.22050287  0.99579816  0.36802811     0.16700
O1964       O  0.17362537  0.51859305  0.33787116    -0.60200
H1965       H  0.26368971  0.56031752  0.28955001     0.16700
O1966       O  0.31047644  0.53569871  0.32275943    -0.60300
H1967       H  0.31562981  0.55834322  0.32581741     0.43700
H1968       H  0.16893082  0.49784555  0.32869969     0.43600
C1969       C  0.21852168  0.54574883  0.18709369    -0.05400
C1970       C  0.21809554  0.55370844  0.15712828    -0.32800
C1971       C  0.23838493  0.53751477  0.13707537     0.36400
C1972       C  0.26106397  0.51368300  0.14709915    -0.05800
C1973       C  0.25886019  0.50453394  0.17710765    -0.32700
C1974       C  0.23867567  0.52062883  0.19687289     0.36300
H1975       H  0.20140537  0.57204485  0.14909015     0.16700
O1976       O  0.24059963  0.04867926  0.10660850    -0.60200
H1977       H  0.27231839  0.48445441  0.18584056     0.16700
O1978       O  0.23875874  0.51144001  0.22594821    -0.60300
H1979       H  0.25693213  0.52396504  0.23545624     0.43700
H1980       H  0.24646801  0.07141405  0.10548266     0.43600
C1981       C  0.01464390  0.52115651  0.14167656    -0.05400
C1982       C  0.03602882  0.50389350  0.16091327    -0.32800
C1983       C  0.05703240  0.51824832  0.18141425     0.36400
C1984       C  0.05725541  0.55126808  0.18432500    -0.05800
C1985       C  0.03509292  0.56906708  0.16667281    -0.32700
C1986       C  0.01381406  0.55453998  0.14555081     0.36300
H1987       H  0.03653586  0.97696175  0.16252090     0.16700
O1988       O  0.07616793  0.49929562  0.19956724    -0.60200
H1989       H  0.03401675  0.59440308  0.16936752     0.16700
O1990       O  0.99056156  0.57303525  0.13127144    -0.60300
H1991       H  0.00364405  0.58848705  0.11950278     0.43700
H1992       H  0.09550894  0.49277757  0.18749492     0.43600
C1993       C  0.17473792  0.73172856  0.14508493    -0.05400
C1994       C  0.18198216  0.73334347  0.17579348    -0.32800
C1995       C  0.16778176  0.71296621  0.19611425     0.36400
C1996       C  0.14703966  0.68829221  0.18669243    -0.05800
C1997       C  0.13674307  0.68740995  0.15697374    -0.32700
C1998       C  0.15012207  0.70909860  0.13623982     0.36300
H1999       H  0.20099837  0.74842850  0.18512665     0.16700
O2000       O  0.17724012  0.71549298  0.22523682    -0.60200
H2001       H  0.12032737  0.66862710  0.14940430     0.16700
O2002       O  0.14083301  0.70645773  0.10713487    -0.60300
H2003       H  0.15063443  0.68633564  0.10038692     0.43700
H2004       H  0.16025175  0.72940953  0.23414460     0.43600
C2005       C  0.15090658  0.68122806  0.31668320    -0.05400
C2006       C  0.14468344  0.71348308  0.31231604    -0.32800
C2007       C  0.15684556  0.73607004  0.33259393     0.36400
C2008       C  0.17673298  0.72671310  0.35749397    -0.05800
C2009       C  0.17667126  0.69410954  0.36434011    -0.32700
C2010       C  0.16550919  0.67164509  0.34369719     0.36300
H2011       H  0.13275184  0.72144814  0.29202076     0.16700
O2012       O  0.15298086  0.76738667  0.32574589    -0.60200
H2013       H  0.18708251  0.68541999  0.38490690     0.16700
O2014       O  0.16964528  0.64017910  0.34989327    -0.60300
H2015       H  0.19343437  0.63563936  0.34535875     0.43700
H2016       H  0.13080725  0.77314843  0.33376001     0.43600
C2017       C  0.22269539  0.94993939  0.06087994    -0.05400
C2018       C  0.22219908  0.94154735  0.09069406    -0.32800
C2019       C  0.24256641  0.95755836  0.11136063     0.36400
C2020       C  0.26503878  0.98196696  0.10219496    -0.05800
C2021       C  0.26350350  0.99100015  0.07211528    -0.32700
C2022       C  0.24315272  0.97511699  0.05178412     0.36300
H2023       H  0.20523405  0.92319584  0.09815972     0.16700
O2024       O  0.23983386  0.94967407  0.14064967    -0.60200
H2025       H  0.27329564  0.50933683  0.06455462     0.16700
O2026       O  0.24352310  0.98437932  0.02272278    -0.60300
H2027       H  0.22601933  0.50112505  0.02224795     0.43700
H2028       H  0.24625707  0.92715279  0.14232718     0.43600
C2029       C  0.22446432  0.96367846  0.44122127    -0.05400
C2030       C  0.25282830  0.94651923  0.43269706    -0.32800
C2031       C  0.27711822  0.95986820  0.41447723     0.36400
C2032       C  0.27197355  0.99030034  0.40214082    -0.05800
C2033       C  0.24763394  0.00934577  0.41579898    -0.32700
C2034       C  0.22317808  0.99602086  0.43411773     0.36300
H2035       H  0.25626250  0.92232390  0.43988826     0.16700
O2036       O  0.30518826  0.94252998  0.40851910    -0.60200
H2037       H  0.24514713  0.03391891  0.40958989     0.16700
O2038       O  0.19823990  0.01481344  0.44479067    -0.60300
H2039       H  0.18196866  0.01734257  0.42821840     0.43700
H2040       H  0.31987804  0.94462946  0.42621135     0.43600
C2041       C  0.05883725  0.94533353  0.06315735    -0.05400
C2042       C  0.02443268  0.93781880  0.06403258    -0.32800
C2043       C  0.00260770  0.95338658  0.08349197     0.36400
C2044       C  0.01489574  0.97729047  0.10278018    -0.05800
C2045       C  0.04955907  0.98471264  0.10077509    -0.32700
C2046       C  0.07124528  0.96828930  0.08272281     0.36300
H2047       H  0.01405514  0.92071582  0.04877131     0.16700
O2048       O  0.96896215  0.94639194  0.08214399    -0.60200
H2049       H  0.06198504  0.50626178  0.11011247     0.16700
O2050       O  0.10473686  0.97606839  0.08368820    -0.60300
H2051       H  0.11517390  0.96040829  0.09727040     0.43700
H2052       H  0.96690470  0.92392198  0.08808969     0.43600
C2053       C  0.14771328  0.82296621  0.42474395    -0.05400
C2054       C  0.14090078  0.79083481  0.42981202    -0.32800
C2055       C  0.15451315  0.76741251  0.41141535     0.36400
C2056       C  0.17617933  0.77603656  0.38792930    -0.05800
C2057       C  0.17612971  0.80822762  0.37955235    -0.32700
C2058       C  0.16329977  0.83146621  0.39816106     0.36300
H2059       H  0.12773089  0.78365681  0.44951721     0.16700
O2060       O  0.14940217  0.73619729  0.41833586    -0.60200
H2061       H  0.18787006  0.81604447  0.35944501     0.16700
O2062       O  0.16785587  0.86263236  0.39093189    -0.60300
H2063       H  0.14760742  0.86851117  0.37923423     0.43700
H2064       H  0.16127615  0.73253595  0.43739091     0.43600
C2065       C  0.18134144  0.77320614  0.10081218    -0.05400
C2066       C  0.14654505  0.77987626  0.09897570    -0.32800
C2067       C  0.13373236  0.80148493  0.07759966     0.36400
C2068       C  0.15584116  0.81725850  0.05823956    -0.05800
C2069       C  0.19030251  0.81156596  0.06142888    -0.32700
C2070       C  0.20289537  0.78992003  0.08136766     0.36300
H2071       H  0.12923083  0.76836323  0.11377361     0.16700
O2072       O  0.09988283  0.80698423  0.07601896    -0.60200
H2073       H  0.20856991  0.82367319  0.04787992     0.16700
O2074       O  0.23702770  0.78515529  0.08156425    -0.60300
H2075       H  0.24222791  0.77486906  0.06259607     0.43700
H2076       H  0.09113841  0.79205801  0.06101731     0.43600
C2077       C  0.05429580  0.55701487  0.31269559    -0.05400
C2078       C  0.01987887  0.56373840  0.31315293    -0.32800
C2079       C  0.99835442  0.54757111  0.33266803     0.36400
C2080       C  0.01139206  0.52491234  0.35308186    -0.05800
C2081       C  0.04589190  0.51758506  0.35081015    -0.32700
C2082       C  0.06704611  0.53385196  0.33190784     0.36300
H2083       H  0.00937171  0.58049552  0.29748190     0.16700
O2084       O  0.96445509  0.55311507  0.33085331    -0.60200
H2085       H  0.05728609  0.49845628  0.36306817     0.16700
O2086       O  0.10042924  0.52609764  0.33180132    -0.60300
H2087       H  0.11104119  0.53989740  0.34685359     0.43700
H2088       H  0.96146388  0.57585691  0.33497659     0.43600
C2089       C  0.05391772  0.95164163  0.43464476    -0.05400
C2090       C  0.05591636  0.98465827  0.43254628    -0.32800
C2091       C  0.03507744  0.00188857  0.41378099     0.36400
C2092       C  0.01126431  0.98659633  0.39520817    -0.05800
C2093       C  0.00794984  0.95340328  0.39844598    -0.32700
C2094       C  0.02908608  0.93605488  0.41772836     0.36300
H2095       H  0.07383589  0.99788232  0.44575567     0.16700
O2096       O  0.03830603  0.03413938  0.41364952    -0.60200
H2097       H  0.98851008  0.94055491  0.38681948     0.16700
O2098       O  0.02505663  0.90400437  0.41983378    -0.60300
H2099       H  0.00736520  0.90077041  0.43475998     0.43700
H2100       H  0.06091634  0.03878475  0.40572622     0.43600
C2101       C  0.92505220  0.55497880  0.06108175    -0.05400
C2102       C  0.91241694  0.53012034  0.07804874    -0.32800
C2103       C  0.93315532  0.51152234  0.09579963     0.36400
C2104       C  0.96809199  0.51889104  0.09910220    -0.05800
C2105       C  0.98117223  0.54195979  0.07970592    -0.32700
C2106       C  0.96007772  0.56026411  0.06132672     0.36300
H2107       H  0.88603321  0.52383493  0.07677691     0.16700
O2108       O  0.91922764  0.48435789  0.10709908    -0.60200
H2109       H  0.00797083  0.54644274  0.07948445     0.16700
O2110       O  0.97412466  0.58287537  0.04352967    -0.60300
H2111       H  0.97936805  0.57187390  0.02493507     0.43700
H2112       H  0.90026070  0.49097458  0.11959365     0.43600
C2113       C  0.92514093  0.55588181  0.43768497    -0.05400
C2114       C  0.94761072  0.57351086  0.42048461    -0.32800
C2115       C  0.96913961  0.55881977  0.40041526     0.36400
C2116       C  0.96741530  0.52557323  0.39622184    -0.05800
C2117       C  0.94604470  0.50824319  0.41496702    -0.32700
C2118       C  0.92491453  0.52273600  0.43478039     0.36300
H2119       H  0.94907603  0.59887032  0.42294058     0.16700
O2120       O  0.99223837  0.57727454  0.38614538    -0.60200
H2121       H  0.94473020  0.48278045  0.41333661     0.16700
O2122       O  0.90421124  0.50380485  0.45124458    -0.60300
H2123       H  0.88384842  0.50056908  0.43878886     0.43700
H2124       H  0.00772560  0.58537892  0.40164599     0.43600
C2125       C  0.71942949  0.51477853  0.39645793    -0.05400
C2126       C  0.73824675  0.54088104  0.38578288    -0.32800
C2127       C  0.76101800  0.55722643  0.40409303     0.36400
C2128       C  0.76389557  0.54896440  0.43400408    -0.05800
C2129       C  0.74211495  0.52668729  0.44573359    -0.32700
C2130       C  0.71897457  0.51091099  0.42791397     0.36300
H2131       H  0.73708262  0.54704596  0.36257404     0.16700
O2132       O  0.78072352  0.58068665  0.39246055    -0.60200
H2133       H  0.74214096  0.52227525  0.46932191     0.16700
O2134       O  0.69502821  0.49361809  0.44229500    -0.60300
H2135       H  0.67655335  0.50858243  0.44612948     0.43700
H2136       H  0.80150791  0.57000271  0.38614742     0.43600
C2137       C  0.75750434  0.56814666  0.06102199    -0.05400
C2138       C  0.72668122  0.55580577  0.05193180    -0.32800
C2139       C  0.70663013  0.53860123  0.07147574     0.36400
C2140       C  0.71817067  0.53219147  0.10096669    -0.05800
C2141       C  0.74556391  0.55064195  0.11113558    -0.32700
C2142       C  0.76623296  0.56701019  0.09113813     0.36300
H2143       H  0.71869713  0.55828630  0.02909681     0.16700
O2144       O  0.67546933  0.52897745  0.06160675    -0.60200
H2145       H  0.75308343  0.54961556  0.13414571     0.16700
O2146       O  0.79544696  0.58076637  0.10103321    -0.60300
H2147       H  0.81243046  0.56373938  0.10079406     0.43700
H2148       H  0.67927378  0.51579668  0.04397712     0.43600
C2149       C  0.93133379  0.94525725  0.18827670    -0.05400
C2150       C  0.93068290  0.97817486  0.18591352    -0.32800
C2151       C  0.94954080  0.99419802  0.16522522     0.36400
C2152       C  0.97096837  0.97771526  0.14590360    -0.05800
C2153       C  0.97369703  0.94467361  0.14980554    -0.32700
C2154       C  0.95353632  0.92840969  0.17027768     0.36300
H2155       H  0.91474761  0.99218002  0.19984181     0.16700
O2156       O  0.94645471  0.02640475  0.16378283    -0.60200
H2157       H  0.99136587  0.93118047  0.13725713     0.16700
O2158       O  0.95615179  0.89626714  0.17268871    -0.60300
H2159       H  0.94040084  0.88776647  0.15758464     0.43700
H2160       H  0.92354852  0.03054825  0.15588755     0.43600
C2161       C  0.92483251  0.95053956  0.31403015    -0.05400
C2162       C  0.91100763  0.97496891  0.33048838    -0.32800
C2163       C  0.93061866  0.99396164  0.34886568     0.36400
C2164       C  0.96551816  0.98761042  0.35315832    -0.05800
C2165       C  0.97956343  0.96391752  0.33530908    -0.32700
C2166       C  0.95965842  0.94525965  0.31638321     0.36300
H2167       H  0.88463272  0.98073980  0.32811770     0.11100
O2168       O  0.91452487  0.51768302  0.36067715    -0.60200
H2169       H  0.00635933  0.95970010  0.33620145     0.16700
O2170       O  0.97488826  0.92319904  0.29918056    -0.60300
H2171       H  0.97716702  0.90422833  0.31193889     0.43700
H2172       H  0.89565075  0.50950748  0.37265006     0.43600
C2173       C  0.76556610  0.94289707  0.31303781    -0.05400
C2174       C  0.73230549  0.93279563  0.31577493    -0.32800
C2175       C  0.71114686  0.94659317  0.33641456     0.36400
C2176       C  0.72278911  0.97196981  0.35447272    -0.05800
C2177       C  0.75777612  0.97826799  0.35407272    -0.32700
C2178       C  0.77858559  0.96489307  0.33308026     0.36300
H2179       H  0.72221172  0.91501389  0.30104571     0.16700
O2180       O  0.67823246  0.93686010  0.33707084    -0.60200
H2181       H  0.77007340  0.99321630  0.36993715     0.16700
O2182       O  0.81208885  0.97262888  0.33305214    -0.60300
H2183       H  0.81336697  0.99352843  0.32316955     0.43700
H2184       H  0.67855105  0.91609762  0.34727408     0.43600
C2185       C  0.76958654  0.94879607  0.17920137    -0.05400
C2186       C  0.73511324  0.94226700  0.17918211    -0.32800
C2187       C  0.71322482  0.95748608  0.15949297     0.36400
C2188       C  0.72545124  0.98032920  0.13900440    -0.05800
C2189       C  0.76069698  0.98200128  0.13567333    -0.32700
C2190       C  0.78254888  0.96759514  0.15622787     0.36300
H2191       H  0.72454770  0.92669537  0.19571421     0.16700
O2192       O  0.67946267  0.95160490  0.16193010    -0.60200
H2193       H  0.77191910  0.99488954  0.11774567     0.16700
O2194       O  0.81654695  0.97171268  0.15336540    -0.60300
H2195       H  0.82136910  0.99304269  0.16123653     0.43700
H2196       H  0.67257936  0.96148751  0.18064846     0.43600
C2197       C  0.75677369  0.74079556  0.35993002    -0.05400
C2198       C  0.74970430  0.70831058  0.36372095    -0.32800
C2199       C  0.72764252  0.69237776  0.34456579     0.36400
C2200       C  0.71033875  0.70907041  0.32222008    -0.05800
C2201       C  0.71377153  0.74183272  0.32078126    -0.32700
C2202       C  0.73606176  0.75770915  0.33949224     0.36300
H2203       H  0.76106644  0.69480373  0.38142176     0.16700
O2204       O  0.72261411  0.66057671  0.34828688    -0.60200
H2205       H  0.70024915  0.75526936  0.30408782     0.16700
O2206       O  0.73929374  0.78971976  0.33598763    -0.60300
H2207       H  0.71832730  0.79876003  0.34385859     0.43700
H2208       H  0.74294158  0.65045322  0.34029428     0.43600
C2209       C  0.76221122  0.77739114  0.39976085    -0.05400
C2210       C  0.74511322  0.75847743  0.42059652    -0.32800
C2211       C  0.72279607  0.77081924  0.44058831     0.36400
C2212       C  0.71538486  0.80316405  0.44006112    -0.05800
C2213       C  0.73146958  0.82257445  0.41922849    -0.32700
C2214       C  0.75464472  0.81016047  0.39911523     0.36300
H2215       H  0.74953507  0.73331529  0.42172576     0.16700
O2216       O  0.70943597  0.75089528  0.46138130    -0.60200
H2217       H  0.72567719  0.84750123  0.41814333     0.16700
O2218       O  0.76706235  0.82982475  0.37770474    -0.60300
H2219       H  0.77874941  0.84720429  0.38824562     0.43700
H2220       H  0.69086440  0.73960590  0.45112384     0.43600
C2221       C  0.80718314  0.77743601  0.35615797    -0.05400
C2222       C  0.80990681  0.76679451  0.32673942    -0.32800
C2223       C  0.82449388  0.78548077  0.30508625     0.36400
C2224       C  0.83921578  0.81434009  0.31271420    -0.05800
C2225       C  0.84309933  0.82202462  0.34255349    -0.32700
C2226       C  0.82830380  0.80300251  0.36441144     0.36300
H2227       H  0.79899533  0.74463221  0.31974004     0.16700
O2228       O  0.82320573  0.77591272  0.27622874    -0.60200
H2229       H  0.85566594  0.84372365  0.34881404     0.16700
O2230       O  0.83262212  0.81111865  0.39335393    -0.60300
H2231       H  0.85551643  0.80380645  0.39876668     0.43700
H2232       H  0.79982387  0.77991580  0.26943609     0.43600
C2233       C  0.80942980  0.73727200  0.39561386    -0.05400
C2234       C  0.82208931  0.70970172  0.38253066    -0.32800
C2235       C  0.83573617  0.68547708  0.40006107     0.36400
C2236       C  0.84111474  0.69033461  0.43032500    -0.05800
C2237       C  0.83615277  0.72026860  0.44192627    -0.32700
C2238       C  0.82034670  0.74374627  0.42506564     0.36300
H2239       H  0.81761449  0.70523229  0.35934642     0.16700
O2240       O  0.84220874  0.65671000  0.38778247    -0.60200
H2241       H  0.84150624  0.72460464  0.46504321     0.16700
O2242       O  0.81534790  0.77260562  0.43783775    -0.60300
H2243       H  0.80159417  0.76866907  0.45559210     0.43700
H2244       H  0.82035169  0.64539771  0.38753012     0.43600
C2245       C  0.76235913  0.76453089  0.10502079    -0.05400
C2246       C  0.72717328  0.76022121  0.10792938    -0.32800
C2247       C  0.70409220  0.77442164  0.08865447     0.36400
C2248       C  0.71535513  0.79240327  0.06462388    -0.05800
C2249       C  0.75001761  0.79513392  0.06006487    -0.32700
C2250       C  0.77323365  0.78075292  0.07925894     0.36300
H2251       H  0.71663248  0.74522515  0.12474426     0.16700
O2252       O  0.67043580  0.77036194  0.09362407    -0.60200
H2253       H  0.75932411  0.80806181  0.04114369     0.16700
O2254       O  0.80676773  0.78368801  0.07318360    -0.60300
H2255       H  0.81069706  0.76942409  0.05634927     0.43700
H2256       H  0.66394204  0.78848417  0.10598874     0.43600
C2257       C  0.76951580  0.73242623  0.15308649    -0.05400
C2258       C  0.77099951  0.69952543  0.15871779    -0.32800
C2259       C  0.74975646  0.68482585  0.17909873     0.36400
C2260       C  0.72704358  0.70288853  0.19535764    -0.05800
C2261       C  0.72845866  0.73585013  0.19267469    -0.32700
C2262       C  0.74962233  0.75062450  0.17237290     0.36300
H2263       H  0.78827384  0.68456293  0.14722824     0.16700
O2264       O  0.75052331  0.65261680  0.18193968    -0.60200
H2265       H  0.71267760  0.75048395  0.20617796     0.16700
O2266       O  0.74976292  0.78298152  0.17074515    -0.60300
H2267       H  0.72714143  0.78911572  0.16340885     0.43700
H2268       H  0.76941417  0.64820616  0.19578993     0.43600
C2269       C  0.84121085  0.81874776  0.18031941    -0.05400
C2270       C  0.84843271  0.78673980  0.18434056    -0.32800
C2271       C  0.83439658  0.76405879  0.16524294     0.36400
C2272       C  0.81231663  0.77330395  0.14179298    -0.05800
C2273       C  0.80878935  0.80605354  0.13646440    -0.32700
C2274       C  0.82351146  0.82834425  0.15489854     0.36300
H2275       H  0.86231022  0.77900773  0.20375355     0.16700
O2276       O  0.84042447  0.73272460  0.17087552    -0.60200
H2277       H  0.79215688  0.81545232  0.11980209     0.16700
O2278       O  0.81705037  0.85968546  0.14968570    -0.60300
H2279       H  0.83761832  0.86810847  0.14031447     0.43700
H2280       H  0.82907544  0.72789693  0.18973246     0.43600
C2281       C  0.80649064  0.72424297  0.10726151    -0.05400
C2282       C  0.78537906  0.70196768  0.09334814    -0.32800
C2283       C  0.79682538  0.68170412  0.07198994     0.36400
C2284       C  0.83029898  0.68330098  0.06266097    -0.05800
C2285       C  0.85253008  0.70401519  0.07703754    -0.32700
C2286       C  0.84098468  0.72467722  0.09898308     0.36300
H2287       H  0.75893845  0.70077672  0.09862170     0.16700
O2288       O  0.77436846  0.66096933  0.05953802    -0.60200
H2289       H  0.87843686  0.70547725  0.07014090     0.16700
O2290       O  0.86340326  0.74590067  0.11068984    -0.60300
H2291       H  0.86575065  0.76275272  0.09558588     0.43700
H2292       H  0.77137499  0.64403356  0.07448671     0.43600
C2293       C  0.78844711  0.74799809  0.62697559    -0.02400
C2294       C  0.78473484  0.75928262  0.87849969    -0.02400
Fe2295     Fe  0.80364301  0.87858158  0.74718751     1.65800
Fe2296     Fe  0.84695651  0.94583240  0.74924617     1.73200
Fe2297     Fe  0.88914345  0.87657141  0.75055803     1.54400
O2298       O  0.87329746  0.85154679  0.78721158    -0.81600
O2299       O  0.88867196  0.94820975  0.72338749    -0.79900
O2300       O  0.82015408  0.84224714  0.77371699    -0.84100
O2301       O  0.81832441  0.85588950  0.71047388    -0.79000
O2302       O  0.91326517  0.90871413  0.77901932    -0.80800
O2303       O  0.81840912  0.94868575  0.71110990    -0.83500
C2304       C  0.84428622  0.83974018  0.70560926     0.97300
C2305       C  0.84555338  0.83713926  0.79017050     1.04700
O2306       O  0.84674757  0.90030664  0.74907484    -1.12500
O2307       O  0.80546259  0.94916099  0.77631049    -0.74900
O2308       O  0.78620591  0.90047615  0.78417223    -0.78400
O2309       O  0.87086798  0.84149824  0.72157821    -0.79100
C2310       C  0.78734532  0.92954815  0.79036839     0.96200
O2311       O  0.78053352  0.91144843  0.71974710    -0.77100
O2312       O  0.87584631  0.94651035  0.78647672    -0.82200
C2313       C  0.90832443  0.92996424  0.70985539     0.98800
C2314       C  0.90380453  0.93356575  0.79218174     1.04700
O2315       O  0.90857572  0.90037430  0.71445703    -0.77900
C2316       C  0.79095452  0.93493937  0.70492063     1.03000
Fe2317     Fe  0.80065027  0.62527247  0.49032534     1.65800
Fe2318     Fe  0.84262603  0.55822544  0.00091864     1.73200
Fe2319     Fe  0.88568668  0.62711338  0.99814474     1.54400
O2320       O  0.86869445  0.66303960  0.96987542    -0.81600
O2321       O  0.87170664  0.55982008  0.53792705    -0.79900
O2322       O  0.81933401  0.64621895  0.95282467    -0.84100
O2323       O  0.81737578  0.66259426  0.51562404    -0.79000
O2324       O  0.90390980  0.60218148  0.96241981    -0.80800
O2325       O  0.80113847  0.55709122  0.52850792    -0.83500
C2326       C  0.83934988  0.66437240  0.53611054     0.97300
C2327       C  0.84427479  0.66466274  0.95161883     1.04700
O2328       O  0.84307702  0.60351388  0.99640229    -1.12500
O2329       O  0.81277220  0.55124644  0.96402287    -0.74900
O2330       O  0.77874676  0.59267845  0.96402244    -0.78400
O2331       O  0.86772726  0.65072947  0.53443156    -0.79100
C2332       C  0.78718338  0.56596404  0.95451282     0.96200
O2333       O  0.77941705  0.60552441  0.52777113    -0.77100
O2334       O  0.88395457  0.55445404  0.97432172    -0.82200
C2335       C  0.90104164  0.57108045  0.54055246     0.98800
C2336       C  0.90314220  0.57223655  0.95924581     1.04700
O2337       O  0.91035229  0.59484061  0.52558621    -0.77900
C2338       C  0.78102959  0.57766923  0.53819100     1.03000
C2339       C  0.98983566  0.00660511  0.87413642    -0.02400
Fe2340     Fe  0.18289534  0.88572288  0.49327532     1.65800
Fe2341     Fe  0.13854852  0.95164071  0.99811117     1.73200
Fe2342     Fe  0.09908207  0.87932267  0.99583956     1.54400
O2343       O  0.11843654  0.84726243  0.96459334    -0.81600
O2344       O  0.10543723  0.94966054  0.53282782    -0.79900
O2345       O  0.17048245  0.86370634  0.95460597    -0.84100
O2346       O  0.16773037  0.84663186  0.51581511    -0.79000
O2347       O  0.07694718  0.90566639  0.96136549    -0.80800
O2348       O  0.17712736  0.95450927  0.52738882    -0.83500
C2349       C  0.14478465  0.84001158  0.53386509     0.97300
C2350       C  0.14514711  0.84617933  0.94920433     1.04700
O2351       O  0.14039324  0.90574789  0.99564959    -1.12500
O2352       O  0.17135852  0.96023815  0.96378935    -0.74900
O2353       O  0.20694432  0.92081827  0.96975620    -0.78400
O2354       O  0.11580690  0.85230776  0.53141409    -0.79100
C2355       C  0.19955465  0.94752361  0.95913574     0.96200
O2356       O  0.19955642  0.90651172  0.53248468    -0.77100
O2357       O  0.09927859  0.95330839  0.96900467    -0.82200
C2358       C  0.07997794  0.93318888  0.53951746     0.98800
C2359       C  0.07835364  0.93529564  0.95608228     1.04700
O2360       O  0.07272921  0.90758400  0.52629676    -0.77900
C2361       C  0.19769240  0.93553060  0.53951293     1.03000
Fe2362     Fe  0.18359095  0.61618973  0.74800425     1.65800
Fe2363     Fe  0.13631403  0.55110086  0.75003846     1.73200
Fe2364     Fe  0.09799613  0.62302496  0.74743151     1.54400
O2365       O  0.11881311  0.65613086  0.77758615    -0.81600
O2366       O  0.10617872  0.55068727  0.71356072    -0.79900
O2367       O  0.17248131  0.64213929  0.78505727    -0.84100
O2368       O  0.16855195  0.65254163  0.72090028    -0.79000
O2369       O  0.07657306  0.59942160  0.78298670    -0.80800
O2370       O  0.17707780  0.54415022  0.72316877    -0.83500
C2371       C  0.14250042  0.66159914  0.70696155     0.97300
C2372       C  0.14683943  0.65836126  0.79168095     1.04700
O2373       O  0.13904055  0.59691143  0.74855408    -1.12500
O2374       O  0.16645392  0.54806632  0.78685546    -0.74900
O2375       O  0.20624413  0.58239652  0.77501220    -0.78400
O2376       O  0.11378776  0.64953370  0.71128615    -0.79100
C2377       C  0.19589759  0.55900347  0.79003534     0.96200
O2378       O  0.19740021  0.59129514  0.71082199    -0.77100
O2379       O  0.09557014  0.55063047  0.77710046    -0.82200
C2380       C  0.08023060  0.56616600  0.70619436     0.98800
C2381       C  0.07665870  0.57024514  0.78956021     1.04700
O2382       O  0.07296925  0.59263872  0.71776949    -0.77900
C2383       C  0.19609931  0.56154970  0.70777240     1.03000
C2384       C  0.20030586  0.75076531  0.87388278    -0.02400
C2385       C  0.19764758  0.74938638  0.62189022    -0.02400
C2386       C  0.99101186  0.99793099  0.62341412    -0.02400
Fe2387     Fe  0.30295022  0.86698797  0.74743096     1.65800
Fe2388     Fe  0.34973996  0.80183930  0.74366378     1.73200
Fe2389     Fe  0.38893015  0.87411801  0.75100974     1.54400
O2390       O  0.37106938  0.90707148  0.72030295    -0.81600
O2391       O  0.38147849  0.79893556  0.77897334    -0.79900
O2392       O  0.31652789  0.89567785  0.71325257    -0.84100
O2393       O  0.31640614  0.90007030  0.77776565    -0.79000
O2394       O  0.41259276  0.85132567  0.71626982    -0.80800
O2395       O  0.31020632  0.79294896  0.77182677    -0.83500
C2396       C  0.34173932  0.90970626  0.79225343     0.97300
C2397       C  0.34324496  0.91029798  0.70647285     1.04700
O2398       O  0.34747239  0.84773495  0.74751293    -1.12500
O2399       O  0.31887998  0.80031494  0.70729037    -0.74900
O2400       O  0.28144660  0.83710724  0.71659968    -0.78400
O2401       O  0.37132313  0.90081857  0.78636864    -0.79100
C2402       C  0.29144454  0.81399631  0.70157494     0.96200
O2403       O  0.28662847  0.83905129  0.78202620    -0.77100
O2404       O  0.38867804  0.80378425  0.71507290    -0.82200
C2405       C  0.40488898  0.81550824  0.79015739     0.98800
C2406       C  0.40976698  0.82369815  0.70577665     1.04700
O2407       O  0.41120963  0.84357700  0.78162987    -0.77900
C2408       C  0.28989768  0.80960234  0.78632204     1.03000
Fe2409     Fe  0.30134526  0.62796945  0.99967080     1.65800
Fe2410     Fe  0.34451671  0.69610474  0.50965073     1.73200
Fe2411     Fe  0.38759576  0.62613933  0.50423102     1.54400
O2412       O  0.36946824  0.59292717  0.53414888    -0.81600
O2413       O  0.37937115  0.70173311  0.97676435    -0.79900
O2414       O  0.31345951  0.59848291  0.53367474    -0.84100
O2415       O  0.31868283  0.59778165  0.96895377    -0.79000
O2416       O  0.40861953  0.65039662  0.53967922    -0.80800
O2417       O  0.30663033  0.70328370  0.97849413    -0.83500
C2418       C  0.34609560  0.58945391  0.95786510     0.97300
C2419       C  0.34042624  0.58672531  0.54415039     1.04700
O2420       O  0.34472948  0.65018707  0.50434118    -1.12500
O2421       O  0.30990695  0.69404412  0.54345283    -0.74900
O2422       O  0.27580688  0.65532050  0.52902721    -0.78400
O2423       O  0.37435181  0.59813050  0.96820050    -0.79100
C2424       C  0.28282819  0.67833309  0.54553723     0.96200
O2425       O  0.28580240  0.65674013  0.96488826    -0.77100
O2426       O  0.38179937  0.69627252  0.54132775    -0.82200
C2427       C  0.40318034  0.68539362  0.96630172     0.98800
C2428       C  0.40458968  0.67773869  0.55021050     1.04700
O2429       O  0.40954936  0.65739229  0.97497260    -0.77900
C2430       C  0.28793529  0.68648711  0.96193541     1.03000
C2431       C  0.29001545  0.50201946  0.87608047    -0.02400
C2432       C  0.28551435  0.49726233  0.62508377    -0.02400
C2433       C  0.48847690  0.74576598  0.87604291    -0.02400
C2434       C  0.69830547  0.99023281  0.87480877    -0.02400
Fe2435     Fe  0.68499752  0.63432529  0.75955230     1.65800
Fe2436     Fe  0.63663182  0.69935391  0.75038399     1.73200
Fe2437     Fe  0.59923550  0.62637313  0.75259464     1.54400
O2438       O  0.61930714  0.59823786  0.71906850    -0.81600
O2439       O  0.59581470  0.70046389  0.77732836    -0.79900
O2440       O  0.67447110  0.60030481  0.72858907    -0.84100
O2441       O  0.66978633  0.60559883  0.79353196    -0.79000
O2442       O  0.57527669  0.65347582  0.72064005    -0.80800
O2443       O  0.66688249  0.70761174  0.78686627    -0.83500
C2444       C  0.64317824  0.59039763  0.79899069     0.97300
C2445       C  0.64936929  0.58945009  0.71425464     1.04700
O2446       O  0.64028434  0.65332150  0.75414665    -1.12500
O2447       O  0.67717014  0.70459582  0.72310060    -0.74900
O2448       O  0.70729397  0.66080071  0.72653155    -0.78400
O2449       O  0.61584825  0.59477591  0.78491255    -0.79100
C2450       C  0.70235069  0.68823822  0.71610421     0.96200
O2451       O  0.70057102  0.66603139  0.79113271    -0.77100
O2452       O  0.60593077  0.69692854  0.71355854    -0.82200
C2453       C  0.57531110  0.68206917  0.79002490     0.98800
C2454       C  0.58096728  0.67939399  0.70752401     1.04700
O2455       O  0.57517973  0.65240508  0.78537143    -0.77900
C2456       C  0.69118275  0.69311748  0.79917798     1.03000
C2457       C  0.70131897  0.50610069  0.62165241    -0.02400
Fe2458     Fe  0.67657446  0.86631116  0.00585654     1.65800
Fe2459     Fe  0.63174536  0.80026076  0.50386179     1.73200
Fe2460     Fe  0.59299195  0.87161219  0.50126589     1.54400
O2461       O  0.61484022  0.90668550  0.52951467    -0.81600
O2462       O  0.60092483  0.80043501  0.96756592    -0.79900
O2463       O  0.66170089  0.88310600  0.54473133    -0.84100
O2464       O  0.65935945  0.90562233  0.98354521    -0.79000
O2465       O  0.57342368  0.84964767  0.53787236    -0.80800
O2466       O  0.67242260  0.79831690  0.97565450    -0.83500
C2467       C  0.63912017  0.90684489  0.96181628     0.97300
C2468       C  0.64098384  0.90550863  0.54631752     1.04700
O2469       O  0.63348075  0.84537624  0.50316140    -1.12500
O2470       O  0.66223600  0.79622067  0.54066471    -0.74900
O2471       O  0.70184177  0.83013382  0.52851242    -0.78400
O2472       O  0.61038015  0.89406211  0.96321389    -0.79100
C2473       C  0.69176502  0.80688482  0.54361606     0.96200
O2474       O  0.69226254  0.84682724  0.96699271    -0.77100
O2475       O  0.59160432  0.80002982  0.53212535    -0.82200
C2476       C  0.57449820  0.81538497  0.96058026     0.98800
C2477       C  0.57401274  0.82061825  0.54506567     1.04700
O2478       O  0.56631494  0.84091541  0.97330913    -0.77900
C2479       C  0.69177164  0.81735262  0.96186176     1.03000
C2480       C  0.49386608  0.75048950  0.62798070    -0.02400
C2481       C  0.55397932  0.80948535  0.56977661    -0.05400
C2482       C  0.57021556  0.79320660  0.59262941    -0.32800
C2483       C  0.55192120  0.77660270  0.61372465     0.36400
C2484       C  0.51648808  0.77353177  0.61032155    -0.05800
C2485       C  0.50044710  0.79385867  0.58959392    -0.32700
C2486       C  0.51892574  0.81143348  0.56925564     0.36300
H2487       H  0.59741425  0.79308770  0.59395703     0.16700
O2488       O  0.56919906  0.76386661  0.63724027    -0.60200
H2489       H  0.47332656  0.79399462  0.58752704     0.16700
O2490       O  0.50249284  0.82841201  0.54768970    -0.60300
H2491       H  0.49879017  0.81342581  0.53126488     0.43700
H2492       H  0.57828757  0.78199349  0.64855659     0.43600
C2493       C  0.68011712  0.97770994  0.60462977    -0.05400
C2494       C  0.69951808  0.96226883  0.58327592    -0.32800
C2495       C  0.68598148  0.94076689  0.56371868     0.36400
C2496       C  0.65199004  0.93212915  0.56522698    -0.05800
C2497       C  0.63173423  0.94661695  0.58642668    -0.32700
C2498       C  0.64558164  0.96910453  0.60637687     0.36300
H2499       H  0.72598662  0.96774569  0.58109787     0.16700
O2500       O  0.70640841  0.92868036  0.54240809    -0.60200
H2501       H  0.60563962  0.93967915  0.58829886     0.16700
O2502       O  0.62545125  0.98142872  0.62764896    -0.60300
H2503       H  0.61958321  0.96353440  0.64082357     0.43700
H2504       H  0.72093920  0.91307950  0.55274119     0.43600
C2505       C  0.51352059  0.72699393  0.64829269    -0.05400
C2506       C  0.50624129  0.72386105  0.67859779    -0.32800
C2507       C  0.52747326  0.70712482  0.69770936     0.36400
C2508       C  0.55560159  0.69156598  0.68671786    -0.05800
C2509       C  0.56034783  0.69036125  0.65631755    -0.32700
C2510       C  0.53870786  0.70675221  0.63701067     0.36300
H2511       H  0.48475527  0.73522872  0.68811905     0.16700
O2512       O  0.52124566  0.70711023  0.72739325    -0.60200
H2513       H  0.58145157  0.67756418  0.64757010     0.16700
O2514       O  0.54490590  0.70558187  0.60741849    -0.60300
H2515       H  0.53570952  0.68498314  0.60086994     0.43700
H2516       H  0.53237031  0.72642429  0.73501659     0.43600
C2517       C  0.65694613  0.56514665  0.69167627    -0.05400
C2518       C  0.64305058  0.56585315  0.66299559    -0.32800
C2519       C  0.65572756  0.54629929  0.64041821     0.36400
C2520       C  0.68231552  0.52472152  0.64633099    -0.05800
C2521       C  0.69548100  0.52489409  0.67560612    -0.32700
C2522       C  0.68255209  0.54345729  0.69783809     0.36300
H2523       H  0.62371577  0.58288388  0.65756153     0.16700
O2524       O  0.64282923  0.54955821  0.61244020    -0.60200
H2525       H  0.71757244  0.51189615  0.68211191     0.16700
O2526       O  0.69701792  0.54169777  0.72546354    -0.60300
H2527       H  0.69315685  0.51975566  0.73240260     0.43700
H2528       H  0.65156497  0.57007174  0.60512266     0.43600
C2529       C  0.64647238  0.56330517  0.81927424    -0.05400
C2530       C  0.64689372  0.56657600  0.84998006    -0.32800
C2531       C  0.65953762  0.54222140  0.86832731     0.36400
C2532       C  0.67515685  0.51521114  0.85588205    -0.05800
C2533       C  0.67095150  0.51163074  0.82495624    -0.32700
C2534       C  0.65635421  0.53476372  0.80718922     0.36300
H2535       H  0.63869863  0.58844280  0.85970553     0.16700
O2536       O  0.65890440  0.54638677  0.89824783    -0.60200
H2537       H  0.68032602  0.49195473  0.81304487     0.16700
O2538       O  0.65534948  0.53058571  0.77724606    -0.60300
H2539       H  0.63283333  0.52153723  0.77294385     0.43700
H2540       H  0.63592880  0.54017224  0.90420465     0.43600
C2541       C  0.68024973  0.96440794  0.89309861    -0.05400
C2542       C  0.64489564  0.96190654  0.89525112    -0.32800
C2543       C  0.63019183  0.94164908  0.91629828     0.36400
C2544       C  0.65087203  0.92357244  0.93522964    -0.05800
C2545       C  0.68540028  0.92300413  0.93038026    -0.32700
C2546       C  0.70013886  0.94282956  0.90990371     0.36300
H2547       H  0.62858972  0.97651830  0.88178382     0.16700
O2548       O  0.59601445  0.94139071  0.91946328    -0.60200
H2549       H  0.70171460  0.90831129  0.94391606     0.16700
O2550       O  0.73458487  0.94364469  0.90918455    -0.60300
H2551       H  0.74122767  0.92406942  0.89896457     0.43700
H2552       H  0.58786144  0.92392264  0.90679796     0.43600
C2553       C  0.50899350  0.72604183  0.85352742    -0.05400
C2554       C  0.52973258  0.74380557  0.83451640    -0.32800
C2555       C  0.55025871  0.72998680  0.81382470     0.36400
C2556       C  0.55125374  0.69685407  0.81093618    -0.05800
C2557       C  0.52895632  0.67871776  0.82802727    -0.32700
C2558       C  0.50758982  0.69288652  0.84890783     0.36300
H2559       H  0.53089619  0.76923490  0.83640460     0.16700
O2560       O  0.56981318  0.74960118  0.79695184    -0.60200
H2561       H  0.52785217  0.65340897  0.82510300     0.16700
O2562       O  0.48382649  0.67454270  0.86253496    -0.60300
H2563       H  0.49573092  0.65583942  0.87063594     0.43700
H2564       H  0.55499718  0.75668803  0.78048706     0.43600
C2565       C  0.51249843  0.76581927  0.89619176    -0.05400
C2566       C  0.49869122  0.78991411  0.91379706    -0.32800
C2567       C  0.51850047  0.80776474  0.93348750     0.36400
C2568       C  0.55288452  0.80108098  0.93713094    -0.05800
C2569       C  0.56680090  0.77732312  0.91986572    -0.32700
C2570       C  0.54734388  0.75921597  0.90056658     0.36300
H2571       H  0.47208672  0.79493103  0.91228992     0.16700
O2572       O  0.50354558  0.83061182  0.94995808    -0.60200
H2573       H  0.59316167  0.77144135  0.92220396     0.16700
O2574       O  0.56297195  0.73431781  0.88735130    -0.60300
H2575       H  0.56925756  0.71940923  0.90341361     0.43700
H2576       H  0.50510459  0.85013191  0.93787549     0.43600
C2577       C  0.46567179  0.72747673  0.89836237    -0.05400
C2578       C  0.43219348  0.73750652  0.90324079    -0.32800
C2579       C  0.41178102  0.72365151  0.92447472     0.36400
C2580       C  0.42439357  0.69969875  0.94295641    -0.05800
C2581       C  0.45793240  0.69034764  0.93962888    -0.32700
C2582       C  0.47866760  0.70434488  0.91813789     0.36300
H2583       H  0.42133651  0.75719995  0.89137198     0.16700
O2584       O  0.37952238  0.73439718  0.92724533    -0.60200
H2585       H  0.46856466  0.67278796  0.95443618     0.16700
O2586       O  0.51211705  0.69669367  0.91773876    -0.60300
H2587       H  0.51337107  0.67334417  0.91770032     0.43700
H2588       H  0.36548366  0.72002353  0.91505591     0.43600
C2589       C  0.47260527  0.72855509  0.60706869    -0.05400
C2590       C  0.44601009  0.71048677  0.61925045    -0.32800
C2591       C  0.42401091  0.69269428  0.60140527     0.36400
C2592       C  0.42964639  0.69060129  0.57105351    -0.05800
C2593       C  0.45803637  0.70498941  0.55925013    -0.32700
C2594       C  0.47952939  0.72361593  0.57659115     0.36300
H2595       H  0.44106436  0.71175650  0.64263439     0.16700
O2596       O  0.39643356  0.67852100  0.61363600    -0.60200
H2597       H  0.46311394  0.70257876  0.53594308     0.16700
O2598       O  0.50827278  0.73480545  0.56369328    -0.60300
H2599       H  0.50089470  0.74784863  0.54657269     0.43700
H2600       H  0.40397845  0.65707767  0.61942128     0.43600
C2601       C  0.31340792  0.52809955  0.88925229    -0.05400
C2602       C  0.34034686  0.51869448  0.90810258    -0.32800
C2603       C  0.35458631  0.53932757  0.92907862     0.36400
C2604       C  0.34289011  0.57037780  0.93087691    -0.05800
C2605       C  0.31949487  0.58102538  0.91000072    -0.32700
C2606       C  0.30383755  0.56051592  0.89025386     0.36300
H2607       H  0.34812676  0.49430043  0.90868636     0.16700
O2608       O  0.37748302  0.52809029  0.94934509    -0.60200
H2609       H  0.30998655  0.60487668  0.91148459     0.16700
O2610       O  0.27578302  0.57177555  0.87590661    -0.60300
H2611       H  0.28378482  0.58867946  0.86245060     0.43700
H2612       H  0.36391424  0.51822892  0.96514181     0.43600
C2613       C  0.30906375  0.52126466  0.60915460    -0.05400
C2614       C  0.30874175  0.55388453  0.61528353    -0.32800
C2615       C  0.32157369  0.57569915  0.59513000     0.36400
C2616       C  0.33697432  0.56514654  0.56938347    -0.05800
C2617       C  0.34396820  0.53307864  0.56639569    -0.32700
C2618       C  0.33102388  0.51114173  0.58660551     0.36300
H2619       H  0.29674890  0.56300981  0.63463907     0.16700
O2620       O  0.31677241  0.60729751  0.59972587    -0.60200
H2621       H  0.35692587  0.52476255  0.54710334     0.16700
O2622       O  0.33761293  0.97994295  0.58126096    -0.60300
H2623       H  0.35943653  0.97402817  0.59044091     0.43700
H2624       H  0.33858074  0.61525925  0.60748529     0.43600
C2625       C  0.43166924  0.81275749  0.68201368    -0.05400
C2626       C  0.46646639  0.81257675  0.68592643    -0.32800
C2627       C  0.48661644  0.79351322  0.66820626     0.36400
C2628       C  0.47190030  0.77369768  0.64616921    -0.05800
C2629       C  0.43744420  0.77809266  0.63992041    -0.32700
C2630       C  0.41747712  0.79655166  0.65799489     0.36300
H2631       H  0.47788978  0.82547534  0.70401445     0.16700
O2632       O  0.52068273  0.79381412  0.67304784    -0.60200
H2633       H  0.42527212  0.76706623  0.62124079     0.16700
O2634       O  0.38359172  0.79765698  0.65268238    -0.60300
H2635       H  0.37504190  0.77742611  0.66070936     0.43700
H2636       H  0.52429786  0.78546446  0.69331435     0.43600
C2637       C  0.42588233  0.79997724  0.81321877    -0.05400
C2638       C  0.42124169  0.76753977  0.81780363    -0.32800
C2639       C  0.44131084  0.75064707  0.83739983     0.36400
C2640       C  0.46613320  0.76606976  0.85483363    -0.05800
C2641       C  0.47116724  0.79876916  0.84986729    -0.32700
C2642       C  0.45123837  0.81563388  0.82946400     0.36300
H2643       H  0.40234601  0.75449269  0.80550513     0.16700
O2644       O  0.43570878  0.71879814  0.84006645    -0.60200
H2645       H  0.49131305  0.81141223  0.86076912     0.16700
O2646       O  0.45748874  0.84713374  0.82510194    -0.60300
H2647       H  0.44298251  0.85811319  0.83933273     0.43700
H2648       H  0.44370125  0.70950332  0.82142770     0.43600
C2649       C  0.33424745  0.93125830  0.81714037    -0.05400
C2650       C  0.30235350  0.92824633  0.82933761    -0.32800
C2651       C  0.28927258  0.95108973  0.84758452     0.36400
C2652       C  0.30922562  0.97706043  0.85728582    -0.05800
C2653       C  0.34261363  0.97883521  0.84681915    -0.32700
C2654       C  0.35495192  0.95642164  0.82658960     0.36300
H2655       H  0.28607818  0.90873993  0.82317867     0.16700
O2656       O  0.25644925  0.94755538  0.85595868    -0.60200
H2657       H  0.35850781  0.99863941  0.85262629     0.16700
O2658       O  0.38606723  0.96075246  0.81460554    -0.60300
H2659       H  0.40201855  0.95136310  0.82910559     0.43700
H2660       H  0.24275147  0.94960851  0.83762473     0.43600
C2661       C  0.31134921  0.97558684  0.64170594    -0.05400
C2662       C  0.31260347  0.94321168  0.63484682    -0.32800
C2663       C  0.32591463  0.92152908  0.65497199     0.36400
C2664       C  0.34059959  0.93210474  0.68137716    -0.05800
C2665       C  0.34619537  0.96436018  0.68533977    -0.32700
C2666       C  0.33219193  0.98623275  0.66539326     0.36300
H2667       H  0.30147721  0.93403769  0.61482044     0.16700
O2668       O  0.32312181  0.88985263  0.64933885    -0.60200
H2669       H  0.35867196  0.97271765  0.70517874     0.16700
O2670       O  0.33659212  0.01788190  0.67051737    -0.60300
H2671       H  0.32551634  0.02222150  0.68951404     0.43700
H2672       H  0.29959530  0.88416244  0.65406631     0.43600
C2673       C  0.26963445  0.80168803  0.67749860    -0.05400
C2674       C  0.23612425  0.81150482  0.67508236    -0.32800
C2675       C  0.21353767  0.79630488  0.65593428     0.36400
C2676       C  0.22411486  0.77015659  0.63888252    -0.05800
C2677       C  0.25898376  0.76464353  0.63787199    -0.32700
C2678       C  0.28118588  0.77896704  0.65763167     0.36300
H2679       H  0.22676573  0.82992435  0.68917052     0.16700
O2680       O  0.18059986  0.80578839  0.65537109    -0.60200
H2681       H  0.26989907  0.74917169  0.62197216     0.16700
O2682       O  0.31426562  0.77043147  0.65712010    -0.60300
H2683       H  0.31542407  0.74998921  0.66784717     0.43700
H2684       H  0.17131173  0.79976993  0.67480483     0.43600
C2685       C  0.21409514  0.72281733  0.60304744    -0.05400
C2686       C  0.20691836  0.72011276  0.57245784    -0.32800
C2687       C  0.22836805  0.70403917  0.55390404     0.36400
C2688       C  0.25679867  0.68910742  0.56569318    -0.05800
C2689       C  0.25979399  0.68530227  0.59632621    -0.32700
C2690       C  0.23728357  0.70072192  0.61514703     0.36300
H2691       H  0.18593938  0.73218733  0.56216670     0.16700
O2692       O  0.22289382  0.70538981  0.52399276    -0.60200
H2693       H  0.28002790  0.67126587  0.60561497     0.16700
O2694       O  0.23971370  0.69617438  0.64514049    -0.60300
H2695       H  0.26353860  0.69992434  0.65077529     0.43700
H2696       H  0.20941039  0.68631498  0.51931434     0.43600
C2697       C  0.22412590  0.73506525  0.89782566    -0.05400
C2698       C  0.24450903  0.70930289  0.88950197    -0.32800
C2699       C  0.26451762  0.69264257  0.91003578     0.36400
C2700       C  0.26695458  0.70284595  0.93935059    -0.05800
C2701       C  0.25003185  0.73022344  0.94725720    -0.32700
C2702       C  0.22968741  0.74677460  0.92704087     0.36300
H2703       H  0.24400753  0.70123368  0.86690765     0.16700
O2704       O  0.28262042  0.66716930  0.90089706    -0.60200
H2705       H  0.25280121  0.73921544  0.96947370     0.16700
O2706       O  0.21674579  0.77492229  0.93623273    -0.60300
H2707       H  0.23624585  0.78875293  0.94084026     0.43700
H2708       H  0.26678676  0.64908067  0.90179416     0.43600
C2709       C  0.22548128  0.76567158  0.85112855    -0.05400
C2710       C  0.23007852  0.75231722  0.82283010    -0.32800
C2711       C  0.25110769  0.76617534  0.80190825     0.36400
C2712       C  0.26896667  0.79379497  0.80868454    -0.05800
C2713       C  0.26756752  0.80564648  0.83730084    -0.32700
C2714       C  0.24719271  0.79127326  0.85869162     0.36300
H2715       H  0.21801510  0.73052803  0.81646617     0.16700
O2716       O  0.25306476  0.75305645  0.77441848    -0.60200
H2717       H  0.28286145  0.82586452  0.84330965     0.16700
O2718       O  0.24906443  0.80215407  0.88707132    -0.60300
H2719       H  0.24392770  0.82501284  0.88609682     0.43700
H2720       H  0.27020863  0.73625768  0.77637286     0.43600
C2721       C  0.26503124  0.51527930  0.85226166    -0.05400
C2722       C  0.23002777  0.50950801  0.85342423    -0.32800
C2723       C  0.20751859  0.52367548  0.83376050     0.36400
C2724       C  0.21931850  0.54349757  0.81118999    -0.05800
C2725       C  0.25415949  0.54690509  0.80776452    -0.32700
C2726       C  0.27688754  0.53250605  0.82750119     0.36300
H2727       H  0.22122040  0.99670875  0.86860610     0.16700
O2728       O  0.17384228  0.51834485  0.83737086    -0.60200
H2729       H  0.26397408  0.56068276  0.78958361     0.16700
O2730       O  0.31069959  0.53602717  0.82286099    -0.60300
H2731       H  0.31576562  0.55868212  0.82595808     0.43700
H2732       H  0.16929181  0.49768859  0.82797078     0.43600
C2733       C  0.21834363  0.54574442  0.68679033    -0.05400
C2734       C  0.21784559  0.55372810  0.65683217    -0.32800
C2735       C  0.23809775  0.53755410  0.63674607     0.36400
C2736       C  0.26084250  0.51377433  0.64674810    -0.05800
C2737       C  0.25865457  0.50455343  0.67673621    -0.32700
C2738       C  0.23846473  0.52058654  0.69652483     0.36300
H2739       H  0.20113782  0.57206884  0.64883176     0.16700
O2740       O  0.24005182  0.04834957  0.60661353    -0.60200
H2741       H  0.27213524  0.48446659  0.68543023     0.16700
O2742       O  0.23851488  0.51130599  0.72557571    -0.60300
H2743       H  0.25671318  0.52376252  0.73512608     0.43700
H2744       H  0.24612124  0.07103580  0.60543500     0.43600
C2745       C  0.01486028  0.52117525  0.64137834    -0.05400
C2746       C  0.03642546  0.50392669  0.66046647    -0.32800
C2747       C  0.05749210  0.51827710  0.68091540     0.36400
C2748       C  0.05748850  0.55128067  0.68403601    -0.05800
C2749       C  0.03518684  0.56905929  0.66649087    -0.32700
C2750       C  0.01394238  0.55453989  0.64533216     0.36300
H2751       H  0.03660481  0.97723252  0.66255964     0.16700
O2752       O  0.07693447  0.49930717  0.69879484    -0.60200
H2753       H  0.03397708  0.59437455  0.66929391     0.16700
O2754       O  0.99063667  0.57301077  0.63109415    -0.60300
H2755       H  0.00367852  0.58848100  0.61931220     0.43700
H2756       H  0.09631409  0.49318274  0.68658839     0.43600
C2757       C  0.17454504  0.73198887  0.64466068    -0.05400
C2758       C  0.18192609  0.73353196  0.67535162    -0.32800
C2759       C  0.16790649  0.71304831  0.69568347     0.36400
C2760       C  0.14717556  0.68835055  0.68629791    -0.05800
C2761       C  0.13676127  0.68750923  0.65660161    -0.32700
C2762       C  0.14999334  0.70927796  0.63585476     0.36300
H2763       H  0.20093695  0.74863984  0.68465530     0.16700
O2764       O  0.17749690  0.71553728  0.72477705    -0.60200
H2765       H  0.12035555  0.66870963  0.64905276     0.16700
O2766       O  0.14062350  0.70664575  0.60676794    -0.60300
H2767       H  0.15058536  0.68662438  0.59994609     0.43700
H2768       H  0.16068657  0.72962143  0.73371529     0.43600
C2769       C  0.15091935  0.68111252  0.81651285    -0.05400
C2770       C  0.14464070  0.71337703  0.81230592    -0.32800
C2771       C  0.15671574  0.73584352  0.83273026     0.36400
C2772       C  0.17660452  0.72634066  0.85758229    -0.05800
C2773       C  0.17649335  0.69371350  0.86430154    -0.32700
C2774       C  0.16540122  0.67136848  0.84352456     0.36300
H2775       H  0.13275532  0.72145191  0.79202754     0.16700
O2776       O  0.15283403  0.76719689  0.82604450    -0.60200
H2777       H  0.18684668  0.68491835  0.88485098     0.16700
O2778       O  0.16949094  0.63986695  0.84958211    -0.60300
H2779       H  0.19332873  0.63536245  0.84520605     0.43700
H2780       H  0.13068532  0.77291142  0.83413933     0.43600
C2781       C  0.22159721  0.94936918  0.56089848    -0.05400
C2782       C  0.22099626  0.94114657  0.59075915    -0.32800
C2783       C  0.24143439  0.95716598  0.61138640     0.36400
C2784       C  0.26404370  0.98142898  0.60214605    -0.05800
C2785       C  0.26254321  0.99034819  0.57203820    -0.32700
C2786       C  0.24220881  0.97441001  0.55173636     0.36300
H2787       H  0.20390482  0.92293002  0.59828667     0.16700
O2788       O  0.23863727  0.94943895  0.64070502    -0.60200
H2789       H  0.27309551  0.50934001  0.56418626     0.16700
O2790       O  0.24275375  0.98348183  0.52262645    -0.60300
H2791       H  0.22601407  0.50079286  0.52183499     0.43700
H2792       H  0.24499207  0.92690878  0.64248660     0.43600
C2793       C  0.22551352  0.96369392  0.94119246    -0.05400
C2794       C  0.25385697  0.94659076  0.93252183    -0.32800
C2795       C  0.27815231  0.96010018  0.91440934     0.36400
C2796       C  0.27300433  0.99063954  0.90230703    -0.05800
C2797       C  0.24878788  0.00960621  0.91620685    -0.32700
C2798       C  0.22432000  0.99612635  0.93441938     0.36300
H2799       H  0.25727565  0.92233016  0.93951846     0.16700
O2800       O  0.30621047  0.94280995  0.90829194    -0.60200
H2801       H  0.24634893  0.03424418  0.91021071     0.16700
O2802       O  0.19944021  0.01485417  0.94528623    -0.60300
H2803       H  0.18308304  0.01746723  0.92879059     0.43700
H2804       H  0.32094834  0.94480398  0.92596473     0.43600
C2805       C  0.05785636  0.94579811  0.56300906    -0.05400
C2806       C  0.02331554  0.93882559  0.56374995    -0.32800
C2807       C  0.00172150  0.95454733  0.58332088     0.36400
C2808       C  0.01438428  0.97805260  0.60287170    -0.05800
C2809       C  0.04914426  0.98501786  0.60093031    -0.32700
C2810       C  0.07058715  0.96843071  0.58277113     0.36300
H2811       H  0.01267939  0.92202616  0.54832718     0.16700
O2812       O  0.96795917  0.94808027  0.58187892    -0.60200
H2813       H  0.06197735  0.50662535  0.60946140     0.16700
O2814       O  0.10419737  0.97572330  0.58385949    -0.60300
H2815       H  0.11446438  0.95939322  0.59683049     0.43700
H2816       H  0.96549896  0.92560544  0.58768600     0.43600
C2817       C  0.14847989  0.82266009  0.92502299    -0.05400
C2818       C  0.14121330  0.79058840  0.92992631    -0.32800
C2819       C  0.15453005  0.76712413  0.91142195     0.36400
C2820       C  0.17632941  0.77565562  0.88800693    -0.05800
C2821       C  0.17664786  0.80787915  0.87975181    -0.32700
C2822       C  0.16413532  0.83114873  0.89847838     0.36300
H2823       H  0.12793914  0.78345301  0.94959004     0.16700
O2824       O  0.14904358  0.73592926  0.91819534    -0.60200
H2825       H  0.18847016  0.81567755  0.85967727     0.16700
O2826       O  0.16907476  0.86230478  0.89140807    -0.60300
H2827       H  0.14885028  0.86849626  0.87982265     0.43700
H2828       H  0.16103245  0.73200359  0.93714975     0.43600
C2829       C  0.18075604  0.77359247  0.60041593    -0.05400
C2830       C  0.14590702  0.78007253  0.59869411    -0.32800
C2831       C  0.13285174  0.80163933  0.57737438     0.36400
C2832       C  0.15476598  0.81758972  0.55797635    -0.05800
C2833       C  0.18928387  0.81218435  0.56111891    -0.32700
C2834       C  0.20211445  0.79053133  0.58096693     0.36300
H2835       H  0.12872343  0.76841943  0.61351512     0.16700
O2836       O  0.09895379  0.80688308  0.57582769    -0.60200
H2837       H  0.20738030  0.82451094  0.54755845     0.16700
O2838       O  0.23627833  0.78598293  0.58106344    -0.60300
H2839       H  0.24148704  0.77580855  0.56204396     0.43700
H2840       H  0.08996313  0.79032604  0.56253344     0.43600
C2841       C  0.05464408  0.55745882  0.81277558    -0.05400
C2842       C  0.02026620  0.56430028  0.81325188    -0.32800
C2843       C  0.99870282  0.54822339  0.83277651     0.36400
C2844       C  0.01165314  0.52550252  0.85317222    -0.05800
C2845       C  0.04615601  0.51815013  0.85099022    -0.32700
C2846       C  0.06735925  0.53434913  0.83206925     0.36300
H2847       H  0.00980461  0.58106882  0.79756745     0.16700
O2848       O  0.96483664  0.55392731  0.83098515    -0.60200
H2849       H  0.05749655  0.49903684  0.86330909     0.16700
O2850       O  0.10073373  0.52655382  0.83199632    -0.60300
H2851       H  0.11134688  0.54031038  0.84708316     0.43700
H2852       H  0.96196801  0.57666962  0.83517593     0.43600
C2853       C  0.05490649  0.95119518  0.93483263    -0.05400
C2854       C  0.05679104  0.98420776  0.93270912    -0.32800
C2855       C  0.03586693  0.00134756  0.91396461     0.36400
C2856       C  0.01204865  0.98596376  0.89546587    -0.05800
C2857       C  0.00883000  0.95277159  0.89874607    -0.32700
C2858       C  0.03008253  0.93550786  0.91798927     0.36300
H2859       H  0.07468883  0.99750203  0.94587961     0.16700
O2860       O  0.03902492  0.03360038  0.91378385    -0.60200
H2861       H  0.98940122  0.93986145  0.88716414     0.16700
O2862       O  0.02620423  0.90344139  0.92010108    -0.60300
H2863       H  0.00851340  0.90013547  0.93501478     0.43700
H2864       H  0.06157282  0.03827729  0.90574300     0.43600
C2865       C  0.92484989  0.55463217  0.56088296    -0.05400
C2866       C  0.91237493  0.52969960  0.57784695    -0.32800
C2867       C  0.93323305  0.51122735  0.59560792     0.36400
C2868       C  0.96813159  0.51878491  0.59890181    -0.05800
C2869       C  0.98106035  0.54192286  0.57950498    -0.32700
C2870       C  0.95984535  0.56010878  0.56112750     0.36300
H2871       H  0.88603113  0.52326611  0.57657607     0.16700
O2872       O  0.91945892  0.48401680  0.60695763    -0.60200
H2873       H  0.00783253  0.54654264  0.57926769     0.16700
O2874       O  0.97374901  0.58280212  0.54333483    -0.60300
H2875       H  0.97918751  0.57180675  0.52478255     0.43700
H2876       H  0.90048878  0.49056975  0.61947783     0.43600
C2877       C  0.92533032  0.55656374  0.93764984    -0.05400
C2878       C  0.94798032  0.57413807  0.92059107    -0.32800
C2879       C  0.96943843  0.55941879  0.90047645     0.36400
C2880       C  0.96747842  0.52619973  0.89610936    -0.05800
C2881       C  0.94585571  0.50891885  0.91465831    -0.32700
C2882       C  0.92476882  0.52344368  0.93448688     0.36300
H2883       H  0.94966584  0.59946636  0.92321616     0.16700
O2884       O  0.99272974  0.57780099  0.88635883    -0.60200
H2885       H  0.94435024  0.48347563  0.91288767     0.16700
O2886       O  0.90379435  0.50456024  0.95073145    -0.60300
H2887       H  0.88341434  0.50169953  0.93821597     0.43700
H2888       H  0.00807018  0.58593431  0.90195823     0.43600
C2889       C  0.71998230  0.51552486  0.89657006    -0.05400
C2890       C  0.73859704  0.54171239  0.88582819    -0.32800
C2891       C  0.76126531  0.55822562  0.90410940     0.36400
C2892       C  0.76426540  0.54996591  0.93401830    -0.05800
C2893       C  0.74261743  0.52761603  0.94580224    -0.32700
C2894       C  0.71953637  0.51173218  0.92803379     0.36300
H2895       H  0.73737532  0.54781344  0.86260702     0.16700
O2896       O  0.78076717  0.58182098  0.89245124    -0.60200
H2897       H  0.74271985  0.52320575  0.96939226     0.16700
O2898       O  0.69570678  0.49432711  0.94245692    -0.60300
H2899       H  0.67718200  0.50921121  0.94636618     0.43700
H2900       H  0.80155449  0.57125784  0.88597634     0.43600
C2901       C  0.75723373  0.56759073  0.56111652    -0.05400
C2902       C  0.72623201  0.55553294  0.55215259    -0.32800
C2903       C  0.70609239  0.53853051  0.57178884     0.36400
C2904       C  0.71772535  0.53200006  0.60122505    -0.05800
C2905       C  0.74533654  0.55023502  0.61129148    -0.32700
C2906       C  0.76607088  0.56642110  0.59121112     0.36300
H2907       H  0.71814954  0.55809343  0.52935130     0.16700
O2908       O  0.67476927  0.52921116  0.56206763    -0.60200
H2909       H  0.75295545  0.54915614  0.63427538     0.16700
O2910       O  0.79542351  0.57999516  0.60100983    -0.60300
H2911       H  0.81228511  0.56286438  0.60070561     0.43700
H2912       H  0.67830942  0.51603399  0.54439035     0.43600
C2913       C  0.93121788  0.94512825  0.68831803    -0.05400
C2914       C  0.93066850  0.97808555  0.68639721    -0.32800
C2915       C  0.94951795  0.99440532  0.66586065     0.36400
C2916       C  0.97074571  0.97818347  0.64617260    -0.05800
C2917       C  0.97331875  0.94506208  0.64959944    -0.32700
C2918       C  0.95323814  0.92852757  0.66995576     0.36300
H2919       H  0.91488294  0.99189529  0.70062262     0.16700
O2920       O  0.94662201  0.02664426  0.66494412    -0.60200
H2921       H  0.99083497  0.93169151  0.63677925     0.16700
O2922       O  0.95576448  0.89634633  0.67189632    -0.60300
H2923       H  0.93952444  0.88812642  0.65705288     0.43700
H2924       H  0.92362963  0.03105684  0.65739100     0.43600
C2925       C  0.92584927  0.94959690  0.81423468    -0.05400
C2926       C  0.91195585  0.97404551  0.83063839    -0.32800
C2927       C  0.93149205  0.99312186  0.84898254     0.36400
C2928       C  0.96637390  0.98681225  0.85336167    -0.05800
C2929       C  0.98050812  0.96310237  0.83557645    -0.32700
C2930       C  0.96067820  0.94437797  0.81664004     0.36300
H2931       H  0.88557648  0.97978635  0.82824287     0.11100
O2932       O  0.91486886  0.51853200  0.86010733    -0.60200
H2933       H  0.00730775  0.95892046  0.83653028     0.16700
O2934       O  0.97597501  0.92230171  0.79950203    -0.60300
H2935       H  0.97823927  0.90335463  0.81229286     0.43700
H2936       H  0.89584850  0.51048047  0.87197252     0.43600
C2937       C  0.76648855  0.94144529  0.81441122    -0.05400
C2938       C  0.73304037  0.93177013  0.81676527    -0.32800
C2939       C  0.71171051  0.94601165  0.83700711     0.36400
C2940       C  0.72341411  0.97136109  0.85506539    -0.05800
C2941       C  0.75850866  0.97708152  0.85526323    -0.32700
C2942       C  0.77950884  0.96329058  0.83462098     0.36300
H2943       H  0.72290177  0.91414432  0.80189566     0.16700
O2944       O  0.67855442  0.93702455  0.83700342    -0.60200
H2945       H  0.77066587  0.99189685  0.87132752     0.16700
O2946       O  0.81312932  0.97055745  0.83501711    -0.60300
H2947       H  0.81489113  0.99147316  0.82522440     0.43700
H2948       H  0.67804213  0.91650014  0.84761329     0.43600
C2949       C  0.76947522  0.94734929  0.68057601    -0.05400
C2950       C  0.73481441  0.94200900  0.68138706    -0.32800
C2951       C  0.71308179  0.95727494  0.66160934     0.36400
C2952       C  0.72569594  0.97882738  0.64015346    -0.05800
C2953       C  0.76088122  0.97940192  0.63629492    -0.32700
C2954       C  0.78261444  0.96500720  0.65692360     0.36300
H2955       H  0.72410450  0.92738645  0.69858398     0.16700
O2956       O  0.67919530  0.95262558  0.66472427    -0.60200
H2957       H  0.77211557  0.99149162  0.61788329     0.16700
O2958       O  0.81666307  0.96799532  0.65349169    -0.60300
H2959       H  0.82239227  0.98930395  0.66095843     0.43700
H2960       H  0.67305500  0.96361230  0.68310526     0.43600
C2961       C  0.75707471  0.74116370  0.86030817    -0.05400
C2962       C  0.74999180  0.70868516  0.86413906    -0.32800
C2963       C  0.72799790  0.69270180  0.84495018     0.36400
C2964       C  0.71077572  0.70933310  0.82251042    -0.05800
C2965       C  0.71434438  0.74208308  0.82092511    -0.32700
C2966       C  0.73660108  0.75800448  0.83964661     0.36300
H2967       H  0.76131054  0.69522584  0.88189694     0.16700
O2968       O  0.72294323  0.66091358  0.84873952    -0.60200
H2969       H  0.70093619  0.75546676  0.80412375     0.16700
O2970       O  0.74000185  0.78998102  0.83598510    -0.60300
H2971       H  0.71905745  0.79915837  0.84376240     0.43700
H2972       H  0.74328219  0.65075816  0.84080348     0.43600
C2973       C  0.76226574  0.77796060  0.90006732    -0.05400
C2974       C  0.74497050  0.75915973  0.92084918    -0.32800
C2975       C  0.72263979  0.77162914  0.94075843     0.36400
C2976       C  0.71542203  0.80402591  0.94022675    -0.05800
C2977       C  0.73168514  0.82333470  0.91941202    -0.32700
C2978       C  0.75484746  0.81076283  0.89934179     0.36300
H2979       H  0.74926741  0.73397898  0.92202109     0.16700
O2980       O  0.70906446  0.75175410  0.96148255    -0.60200
H2981       H  0.72602820  0.84828854  0.91829843     0.16700
O2982       O  0.76741253  0.83030031  0.87789420    -0.60300
H2983       H  0.77900404  0.84776223  0.88839509     0.43700
H2984       H  0.69040387  0.74064884  0.95117126     0.43600
C2985       C  0.80763166  0.77760677  0.85675384    -0.05400
C2986       C  0.81096154  0.76643710  0.82756335    -0.32800
C2987       C  0.82640009  0.78454352  0.80596546     0.36400
C2988       C  0.84109100  0.81345155  0.81343295    -0.05800
C2989       C  0.84425703  0.82167434  0.84319524    -0.32700
C2990       C  0.82879794  0.80312843  0.86503650     0.36300
H2991       H  0.79996770  0.74427594  0.82066264     0.16700
O2992       O  0.82577886  0.77448744  0.77724547    -0.60200
H2993       H  0.85672674  0.84345775  0.84934723     0.16700
O2994       O  0.83259072  0.81162512  0.89393546    -0.60300
H2995       H  0.85540096  0.80441519  0.89974988     0.43700
H2996       H  0.80258019  0.77844916  0.76994647     0.43600
C2997       C  0.80945247  0.73773825  0.89625878    -0.05400
C2998       C  0.82242334  0.71031529  0.88314126    -0.32800
C2999       C  0.83649384  0.68628330  0.90060073     0.36400
C3000       C  0.84182409  0.69116732  0.93085114    -0.05800
C3001       C  0.83642963  0.72099743  0.94252408    -0.32700
C3002       C  0.82028883  0.74430408  0.92571206     0.36300
H3003       H  0.81799452  0.70579764  0.85996356     0.16700
O3004       O  0.84339065  0.65762711  0.88827952    -0.60200
H3005       H  0.84170808  0.72533734  0.96565316     0.16700
O3006       O  0.81498359  0.77310128  0.93850510    -0.60300
H3007       H  0.80123288  0.76901485  0.95623313     0.43700
H3008       H  0.82170463  0.64602664  0.88801773     0.43600
C3009       C  0.76246265  0.76395351  0.60516371    -0.05400
C3010       C  0.72726442  0.75967395  0.60804076    -0.32800
C3011       C  0.70422200  0.77380581  0.58869594     0.36400
C3012       C  0.71553217  0.79171949  0.56464046    -0.05800
C3013       C  0.75020717  0.79448895  0.56015545    -0.32700
C3014       C  0.77339002  0.78016858  0.57942135     0.36300
H3015       H  0.71668081  0.74470973  0.62486014     0.16700
O3016       O  0.67055647  0.76971351  0.59360567    -0.60200
H3017       H  0.75955097  0.80737985  0.54122740     0.16700
O3018       O  0.80693852  0.78306970  0.57338847    -0.60300
H3019       H  0.81088786  0.76877477  0.55658114     0.43700
H3020       H  0.66397645  0.78791652  0.60583054     0.43600
C3021       C  0.76948262  0.73176868  0.65314529    -0.05400
C3022       C  0.77069509  0.69884643  0.65869705    -0.32800
C3023       C  0.74945153  0.68428463  0.67915872     0.36400
C3024       C  0.72700700  0.70250454  0.69555045    -0.05800
C3025       C  0.72861966  0.73544835  0.69285851    -0.32700
C3026       C  0.74976728  0.75008647  0.67247904     0.36300
H3027       H  0.78775863  0.68376928  0.64709751     0.16700
O3028       O  0.74994467  0.65206541  0.68195625    -0.60200
H3029       H  0.71301277  0.75017988  0.70642585     0.16700
O3030       O  0.75007128  0.78244101  0.67083569    -0.60300
H3031       H  0.72749190  0.78866696  0.66346690     0.43700
H3032       H  0.76892677  0.64748171  0.69565904     0.43600
C3033       C  0.84148269  0.81765750  0.68073303    -0.05400
C3034       C  0.84860983  0.78560367  0.68460679    -0.32800
C3035       C  0.83451680  0.76303684  0.66540125     0.36400
C3036       C  0.81251205  0.77243478  0.64194430    -0.05800
C3037       C  0.80906368  0.80522280  0.63677460    -0.32700
C3038       C  0.82373568  0.82739891  0.65538587     0.36300
H3039       H  0.86246735  0.77774675  0.70398673     0.16700
O3040       O  0.84039648  0.73165884  0.67094545    -0.60200
H3041       H  0.79247662  0.81472217  0.62012376     0.16700
O3042       O  0.81722374  0.85876675  0.65039446    -0.60300
H3043       H  0.83759790  0.86719490  0.64071123     0.43700
H3044       H  0.82897110  0.72680344  0.68976019     0.43600
C3045       C  0.80634438  0.72343253  0.60726857    -0.05400
C3046       C  0.78505915  0.70138034  0.59322166    -0.32800
C3047       C  0.79632637  0.68123159  0.57167823     0.36400
C3048       C  0.82982642  0.68263752  0.56239161    -0.05800
C3049       C  0.85222999  0.70303146  0.57697119    -0.32700
C3050       C  0.84084537  0.72363197  0.59903281     0.36300
H3051       H  0.75861459  0.70032581  0.59849692     0.16700
O3052       O  0.77368771  0.66079859  0.55903070    -0.60200
H3053       H  0.87817462  0.70430055  0.57015275     0.16700
O3054       O  0.86345341  0.74455672  0.61092370    -0.60300
H3055       H  0.86585964  0.76158966  0.59600541     0.43700
H3056       H  0.77036598  0.64383695  0.57389852     0.43600
loop_ 
_geom_bond_atom_site_label_1 
_geom_bond_atom_site_label_2 
_geom_bond_distance 
_geom_bond_site_symmetry_2 
_ccdc_geom_bond_type 
C1          C717   1.573       .  S
C1          C729   1.568       .  S
C1          C744   1.563       .  S
C1          C753   1.557       .  S
C2          C669   1.571       .  S
C2          C681   1.563       .  S
C2          C693   1.563       .  S
C2          C705   1.566       .  S
Fe3          O19   2.081       .  S
Fe3           O9   2.027       .  S
Fe3          O16   2.057       .  S
Fe3           O8   2.061       .  S
Fe3          O14   1.964       .  S
Fe4           O7   2.030       .  S
Fe4          O11   2.051       .  S
Fe4          O15   2.060       .  S
Fe4          O20   2.030       .  S
Fe4          O14   1.954       .  S
Fe5          O23   2.083       .  S
Fe5          O10   2.096       .  S
Fe5          O17   2.101       .  S
Fe5           O6   2.083       .  S
Fe5          O14   1.989       .  S
O6           C13   1.271       .  A
O7           C21   1.265       .  A
O8           C13   1.269       .  A
O9           C12   1.264       .  A
O10          C22   1.274       .  A
O11          C24   1.265       .  A
C12          O17   1.274       .  A
C12         C741   1.473       .  S
C13         C696   1.473       .  S
O15          C18   1.267       .  A
O16          C18   1.266       .  A
C18         C645   1.476       .  S
O19          C24   1.272       .  A
O20          C22   1.266       .  A
C21          O23   1.271       .  A
C21         C621   1.484       .  S
C22         C633   1.484       .  S
C24         C657   1.484       .  S
Fe25         O41   2.074   1_556  S
Fe25         O31   2.059   1_556  S
Fe25        O802   2.060       .  S
Fe25        O794   2.050       .  S
Fe25        O800   1.953       .  S
Fe26         O37   2.060       .  S
Fe26         O42   2.059       .  S
Fe26        O793   2.040       .  S
Fe26        O797   2.068       .  S
Fe26         O36   1.950       .  S
Fe27         O32   2.089       .  S
Fe27         O28   2.096       .  S
Fe27        O809   2.087       .  S
Fe27        O803   2.090       .  S
Fe27         O36   1.984       .  S
O28          C35   1.271       .  A
O29        Fe790   2.050   1_554  S
O29          C43   1.266       .  A
O30        Fe789   2.048       .  S
O30          C35   1.263       .  A
O31          C34   1.271       .  A
O32          C44   1.280       .  A
O33        Fe790   2.078   1_554  S
O33          C46   1.272       .  A
C34          O39   1.274       .  A
C34         C756   1.477       .  S
C35         C708   1.473       .  S
O36        Fe789   1.964       .  S
O37          C40   1.266       .  A
O38        Fe789   2.056       .  S
O38          C40   1.262       .  A
O39        Fe791   2.084       .  S
C40         C600   1.464       .  S
O41          C46   1.271       .  A
O42          C44   1.274       .  A
C43          O45   1.268       .  A
C43         C573   1.491       .  S
C44         C585   1.493       .  S
O45        Fe791   2.085       .  S
C46         C609   1.475       .  S
C47         C564   1.568   1_655  S
C47         C636   1.564       .  S
C47        C2080   1.564   1_655  S
C47        C2116   1.559       .  S
Fe48         O64   2.094   1_556  S
Fe48         O54   2.042   1_556  S
Fe48        O825   2.056       .  S
Fe48        O817   2.059       .  S
Fe48        O823   1.936       .  S
Fe49         O60   2.062       .  S
Fe49         O65   2.038       .  S
Fe49        O816   2.033       .  S
Fe49        O820   2.057       .  S
Fe49         O59   1.932       .  S
Fe50         O55   2.096       .  S
Fe50         O51   2.136       .  S
Fe50        O832   2.105       .  S
Fe50        O826   2.101       .  S
Fe50         O59   1.969       .  S
O51          C58   1.285       .  A
O52        Fe813   2.034   1_554  S
O52          C66   1.266       .  A
O53        Fe812   2.060       .  S
O53          C58   1.275       .  A
O54          C57   1.263       .  A
O55          C67   1.277       .  A
O56        Fe813   2.059   1_554  S
O56          C69   1.270       .  A
C57          O62   1.269       .  A
C57         C540   1.487       .  S
C58         C525   1.494       .  S
O59        Fe812   1.936       .  S
O60          C63   1.268       .  A
O61        Fe812   2.057       .  S
O61          C63   1.264       .  A
O62        Fe814   2.101   1_554  S
C63         C501   1.481       .  S
O64          C69   1.278       .  A
O65          C67   1.269       .  A
C66          O68   1.277       .  A
C66         C513   1.489       .  S
C67         C561   1.492       .  S
O68        Fe814   2.106   1_554  S
C69         C489   1.478       .  S
Fe70         O86   2.077       .  S
Fe70         O76   2.052       .  S
Fe70         O83   2.079       .  S
Fe70         O75   2.068       .  S
Fe70         O81   1.955       .  S
Fe71         O74   2.032       .  S
Fe71         O78   2.066       .  S
Fe71         O82   2.049       .  S
Fe71         O87   2.051       .  S
Fe71         O81   1.944       .  S
Fe72         O90   2.115       .  S
Fe72         O77   2.083       .  S
Fe72         O84   2.084       .  S
Fe72         O73   2.129       .  S
Fe72         O81   1.980       .  S
O73          C80   1.284       .  A
O74          C88   1.267       .  A
O75          C80   1.274       .  A
O76          C79   1.267       .  A
O77          C89   1.271       .  A
O78          C91   1.268       .  A
C79          O84   1.268       .  A
C79         C468   1.477       .  S
C80         C477   1.496       .  S
O82          C85   1.266       .  A
O83          C85   1.269       .  A
C85         C432   1.483       .  S
O86          C91   1.271       .  A
O87          C89   1.267       .  A
C88          O90   1.280       .  A
C88         C456   1.490       .  S
C89         C549   1.482       .  S
C91         C441   1.476       .  S
C92         C405   1.580       .  S
C92         C417   1.575       .  S
C92         C480   1.581       .  S
C92         C528   1.570       .  S
C93         C384   1.566       .  S
C93         C393   1.569       .  S
C93         C465   1.570       .  S
C93         C537   1.558       .  S
C94         C516   1.572   1_655  S
C94         C624   1.554       .  S
C94        C1981   1.572   1_655  S
C94        C2104   1.563       .  S
Fe95        O111   2.069       .  S
Fe95        O101   2.021       .  S
Fe95        O108   2.049       .  S
Fe95        O100   2.044       .  S
Fe95        O106   1.968       .  S
Fe96         O99   2.040       .  S
Fe96        O103   2.063       .  S
Fe96        O107   2.049       .  S
Fe96        O112   2.037       .  S
Fe96        O106   1.967       .  S
Fe97        O115   2.085       .  S
Fe97        O102   2.101       .  S
Fe97        O109   2.111       .  S
Fe97         O98   2.093       .  S
Fe97        O106   1.999       .  S
O98         C105   1.275       .  A
O99         C113   1.268       .  A
O100        C105   1.268       .  A
O101        C104   1.261       .  A
O102        C114   1.274       .  A
O103        C116   1.268       .  A
C104        O109   1.273       .  A
C104        C357   1.493       .  S
C105        C372   1.470       .  S
O107        C110   1.264       .  A
O108        C110   1.262       .  A
C110        C381   1.475       .  S
O111        C116   1.269       .  A
O112        C114   1.263       .  A
C113        O115   1.273       .  A
C113        C345   1.488       .  S
C114        C333   1.481       .  S
C116        C420   1.471       .  S
Fe117       O133   2.078       .  S
Fe117       O123   2.031       .  S
Fe117       O894   2.054       .  S
Fe117       O886   2.055       .  S
Fe117       O892   1.972       .  S
Fe118       O129   2.072       .  S
Fe118       O134   2.063       .  S
Fe118       O885   2.075   1_554  S
Fe118       O889   2.075   1_554  S
Fe118       O128   1.970       .  S
Fe119       O124   2.087       .  S
Fe119       O120   2.072       .  S
Fe119       O901   2.063   1_554  S
Fe119       O895   2.107   1_554  S
Fe119       O128   1.997       .  S
O120        C127   1.271       .  A
O121       Fe882   2.076       .  S
O121        C135   1.274       .  A
O122       Fe881   2.054       .  S
O122        C127   1.270       .  A
O123        C126   1.262       .  A
O124        C136   1.271       .  A
O125       Fe882   2.074       .  S
O125        C138   1.271       .  A
C126        O131   1.271       .  A
C126        C312   1.485       .  S
C127        C324   1.463       .  S
O128       Fe881   1.973       .  S
O129        C132   1.269       .  A
O130       Fe881   2.053       .  S
O130        C132   1.262       .  A
O131       Fe883   2.107       .  S
C132        C396   1.466       .  S
O133        C138   1.270       .  A
O134        C136   1.266       .  A
C135        O137   1.270       .  A
C135        C288   1.477       .  S
C136        C300   1.478       .  S
O137       Fe883   2.061       .  S
C138        C408   1.481       .  S
C139        C309   1.566       .  S
C139        C429   1.564       .  S
C139       C1888   1.562   1_545  S
C139       C2032   1.563   1_545  S
C140        C321   1.558   1_565  S
C140        C444   1.568   1_565  S
C140       C1897   1.555       .  S
C140       C2020   1.569       .  S
C141        C261   1.567       .  S
C141        C273   1.569       .  S
C141        C285   1.566       .  S
C141        C348   1.562       .  S
C142        C249   1.552       .  S
C142        C648   1.581       .  S
C142       C1768   1.579       .  S
C142       C2125   1.579       .  S
Fe143       O159   2.057       .  S
Fe143       O149   2.060       .  S
Fe143       O156   2.074       .  S
Fe143       O148   2.058       .  S
Fe143       O154   1.955       .  S
Fe144       O147   2.048       .  S
Fe144       O151   2.067       .  S
Fe144       O155   2.050       .  S
Fe144       O160   2.062       .  S
Fe144       O154   1.951       .  S
Fe145       O163   2.102       .  S
Fe145       O150   2.083       .  S
Fe145       O157   2.090       .  S
Fe145       O146   2.108       .  S
Fe145       O154   1.981       .  S
O146        C153   1.278       .  A
O147        C161   1.268       .  A
O148        C153   1.272       .  A
O149        C152   1.266       .  A
O150        C162   1.270       .  A
O151        C164   1.271       .  A
C152        O157   1.271       .  A
C152        C237   1.474       .  S
C153        C225   1.498       .  S
O155        C158   1.266       .  A
O156        C158   1.270       .  A
C158        C732   1.487       .  S
O159        C164   1.267       .  A
O160        C162   1.267       .  A
C161        O163   1.278       .  A
C161        C264   1.499       .  S
C162        C216   1.473       .  S
C164        C672   1.477       .  S
C165        C228   1.577       .  S
C165        C612   1.575       .  S
C165       C1729   1.561   1_545  S
C165       C2188   1.578   1_545  S
Fe166       O182   2.055       .  S
Fe166       O172   2.064       .  S
Fe166       O943   2.073       .  S
Fe166       O935   2.034       .  S
Fe166       O941   1.931       .  S
Fe167       O178   2.058       .  S
Fe167       O183   2.066       .  S
Fe167       O934   2.031   1_554  S
Fe167       O938   2.092   1_554  S
Fe167       O177   1.927       .  S
Fe168       O173   2.062       .  S
Fe168       O169   2.125       .  S
Fe168       O950   2.104   1_554  S
Fe168       O944   2.074   1_554  S
Fe168       O177   1.970       .  S
O169        C176   1.279       .  A
O170       Fe931   2.029       .  S
O170        C184   1.265       .  A
O171       Fe930   2.036       .  S
O171        C176   1.267       .  A
O172        C175   1.269       .  A
O173        C185   1.272       .  A
O174       Fe931   2.087       .  S
O174        C187   1.278       .  A
C175        O180   1.269       .  A
C175        C252   1.479       .  S
C176        C204   1.481       .  S
O177       Fe930   1.932       .  S
O178        C181   1.263       .  A
O179       Fe930   2.074       .  S
O179        C181   1.267       .  A
O180       Fe932   2.079       .  S
C181        C720   1.484       .  S
O182        C187   1.270       .  A
O183        C185   1.273       .  A
C184        O186   1.276       .  A
C184        C276   1.488       .  S
C185        C189   1.462       .  S
O186       Fe932   2.109       .  S
C187        C684   1.487       .  S
C188        C192   1.555       .  S
C188        C213   1.563       .  S
C188        C297   1.573       .  S
C188        C336   1.570       .  S
C189        C190   1.396       .  A
C189        C194   1.399       .  A
C190        C191   1.397       .  A
C190        H195   1.084       .  S
C191        C192   1.423       .  A
C191        O196   1.371       .  S
C192        C193   1.419       .  A
C193        C194   1.399       .  A
C193        H197   1.083       .  S
C194        O198   1.372       .  S
O196        H200   0.992       .  S
O198        H199   0.992       .  S
C201       C1693   1.558       .  S
C201        C202   1.414       .  A
C201        C206   1.422       .  A
C202        C203   1.380       .  A
C202        H207   1.084       .  S
C203        C204   1.401       .  A
C203        O208   1.374       .  S
C204        C205   1.409       .  A
C205        C206   1.421       .  A
C205        H209   1.083       .  S
C206        O210   1.370       .  S
O208        H212   0.992       .  S
O210        H211   0.992       .  S
C213        C214   1.415       .  A
C213        C218   1.426       .  A
C214        C215   1.398       .  A
C214        H219   1.080       .  S
C215        C216   1.402       .  A
C215        O220   1.372       .  S
C216        C217   1.397       .  A
C217        C218   1.406       .  A
C217        H221   1.084       .  S
C218        O222   1.370       .  S
O220        H224   0.991       .  S
O222        H223   0.992       .  S
C225        C226   1.410       .  A
C225        C230   1.404       .  A
C226        C227   1.423       .  A
C226        H231   1.083       .  S
C227        C228   1.423       .  A
C227        O232   1.370       .  S
C228        C229   1.420       .  A
C229        C230   1.387       .  A
C229        H233   1.078       .  S
C230        O234   1.375       .  S
O232        H236   0.992       .  S
O234        H235   0.992       .  S
C237        C238   1.401       .  A
C237        C242   1.393       .  A
C238        C239   1.412       .  A
C238        H243   1.083       .  S
C239        C240   1.429       .  A
C239        O244   1.371       .  S
C240       C1670   1.577   1_545  S
C240        C241   1.419       .  A
C241        C242   1.390       .  A
C241        H245   1.070   1_545  S
C242        O246   1.371       .  S
O244        H248   0.991       .  S
O246        H247   0.991       .  S
C249        C250   1.417       .  A
C249        C254   1.425       .  A
C250        C251   1.412       .  A
C250        H255   1.081       .  S
C251        C252   1.408       .  A
C251        O256   1.370       .  S
C252        C253   1.397       .  A
C253        C254   1.387       .  A
C253        H257   1.084       .  S
C254        O258   1.373       .  S
O256        H260   0.992       .  S
O258        H259   0.992       .  S
C261        C262   1.412       .  A
C261        C266   1.426       .  A
C262        C263   1.386       .  A
C262        H267   1.084       .  S
C263        C264   1.414       .  A
C263        O268   1.373       .  S
C264        C265   1.408       .  A
C265        C266   1.420       .  A
C265        H269   1.083       .  S
C266        O270   1.372       .  S
O268        H272   0.992       .  S
O270        H271   0.992       .  S
C273        C274   1.420       .  A
C273        C278   1.429       .  A
C274        C275   1.408       .  A
C274        H279   1.083       .  S
C275        C276   1.406       .  A
C275        O280   1.371       .  S
C276        C277   1.400       .  A
C277        C278   1.392       .  A
C277        H281   1.084       .  S
C278        O282   1.372       .  S
O280        H284   0.992       .  S
O282        H283   0.992       .  S
C285        C286   1.423       .  A
C285        C290   1.421       .  A
C286        C287   1.392       .  A
C286        H291   1.079       .  S
C287        C288   1.399       .  A
C287        O292   1.373       .  S
C288        C289   1.403       .  A
C289        C290   1.410       .  A
C289        H293   1.084       .  S
C290        O294   1.374       .  S
O292        H296   0.992       .  S
O294        H295   0.992       .  S
C297        C298   1.419       .  A
C297        C302   1.430       .  A
C298        C299   1.406       .  A
C298        H303   1.083       .  S
C299        C300   1.402       .  A
C299        O304   1.371       .  S
C300        C301   1.396       .  A
C301        C302   1.404       .  A
C301        H305   1.084       .  S
C302        O306   1.374       .  S
O304        H308   0.992       .  S
O306        H307   0.993       .  S
C309        C310   1.421       .  A
C309        C314   1.430       .  A
C310        C311   1.413       .  A
C310        H315   1.082   1_545  S
C311        C312   1.404       .  A
C311        O316   1.371       .  S
C312        C313   1.396       .  A
C313        C314   1.396       .  A
C313        H317   1.084       .  S
C314        O318   1.371       .  S
O316        H320   0.992       .  S
O318        H319   0.992       .  S
C321        C322   1.413       .  A
C321        C326   1.424       .  A
C322        C323   1.396       .  A
C322        H327   1.080       .  S
C323        C324   1.402       .  A
C323        O328   1.372       .  S
C324        C325   1.396       .  A
C325        C326   1.401       .  A
C325        H329   1.084       .  S
C326       O1858   1.371   1_545  S
O328        H332   0.992       .  S
O330       C1854   1.371       .  S
O330        H331   0.992       .  S
C333        C334   1.399       .  A
C333        C338   1.405       .  A
C334        C335   1.408       .  A
C334        H339   1.084       .  S
C335        C336   1.427       .  A
C335        O340   1.372       .  S
C336        C337   1.412       .  A
C337        C338   1.396       .  A
C337        H341   1.079       .  S
C338        O342   1.370       .  S
O340        H344   0.992       .  S
O342        H343   0.992       .  S
C345        C346   1.403       .  A
C345        C350   1.410       .  A
C346        C347   1.389       .  A
C346        H351   1.083       .  S
C347        C348   1.420       .  A
C347        O352   1.373       .  S
C348        C349   1.417       .  A
C349        C350   1.406       .  A
C349        H353   1.079       .  S
C350        O354   1.371       .  S
O352        H356   0.992       .  S
O354        H355   0.992       .  S
C357        C358   1.400       .  A
C357        C362   1.410       .  A
C358        C359   1.387       .  A
C358        H363   1.084       .  S
C359        C360   1.422       .  A
C359        O364   1.373       .  S
C360       C1667   1.561       .  S
C360        C361   1.419       .  A
C361        C362   1.417       .  A
C361        H365   1.081       .  S
C362        O366   1.370       .  S
O364        H368   0.992       .  S
O366        H367   0.992       .  S
C369       C1668   1.561       .  S
C369        C370   1.412       .  A
C369        C374   1.425       .  A
C370        C371   1.397       .  A
C370        H375   1.080       .  S
C371        C372   1.404       .  A
C371        O376   1.373       .  S
C372        C373   1.398       .  A
C373        C374   1.406       .  A
C373        H377   1.084       .  S
C374        O378   1.374       .  S
O376        H380   0.992       .  S
O378        H379   0.992       .  S
C381        C382   1.402       .  A
C381        C386   1.403       .  A
C382        C383   1.400       .  A
C382        H387   1.083       .  S
C383        C384   1.425       .  A
C383        O388   1.374       .  S
C384        C385   1.412       .  A
C385        C386   1.390       .  A
C385        H389   1.076       .  S
C386        O390   1.370       .  S
O388        H392   0.992       .  S
O390        H391   0.992       .  S
C393        C394   1.417       .  A
C393        C398   1.424       .  A
C394        C395   1.389       .  A
C394        H399   1.081       .  S
C395        C396   1.397       .  A
C395        O400   1.373       .  S
C396        C397   1.401       .  A
C397        C398   1.412       .  A
C397        H401   1.083       .  S
C398        O402   1.375       .  S
O400        H404   0.992       .  S
O402        H403   0.992       .  S
C405        C406   1.420       .  A
C405        C410   1.436       .  A
C406        C407   1.407       .  A
C406        H411   1.083       .  S
C407        C408   1.403       .  A
C407        O412   1.371       .  S
C408        C409   1.394       .  A
C409        C410   1.404       .  A
C409        H413   1.084       .  S
C410        O414   1.372       .  S
O412        H416   0.992       .  S
O414        H415   0.992       .  S
C417        C418   1.421       .  A
C417        C422   1.427       .  A
C418        C419   1.396       .  A
C418        H423   1.079       .  S
C419        C420   1.398       .  A
C419        O424   1.373       .  S
C420        C421   1.397       .  A
C421        C422   1.407       .  A
C421        H425   1.084       .  S
C422        O426   1.371       .  S
O424        H428   0.992       .  S
O426        H427   0.992       .  S
C429        C430   1.416       .  A
C429        C434   1.421       .  A
C430        C431   1.390       .  A
C430       H1963   1.078   1_545  S
C431        C432   1.404       .  A
C431        O436   1.371       .  S
C432        C433   1.406       .  A
C433        C434   1.406       .  A
C433        H437   1.083       .  S
C434        O438   1.374       .  S
H435       C1958   1.078       .  S
O436        H440   0.992   1_545  S
O438        H439   0.991       .  S
C441        C442   1.398       .  A
C441        C446   1.404       .  A
C442        C443   1.408       .  A
C442        H447   1.084       .  S
C443        C444   1.426       .  A
C443       O1976   1.374       .  S
C444        C445   1.416       .  A
C445        C446   1.394       .  A
C445        H449   1.079   1_545  S
C446        O450   1.373       .  S
O448       C1971   1.374       .  S
O448        H452   0.992       .  S
O450        H451   0.992       .  S
C453       C1622   1.574   1_445  S
C453        C454   1.414       .  A
C453        C458   1.429       .  A
C454        C455   1.386       .  A
C454       H1987   1.084   1_545  S
C455        C456   1.410       .  A
C455        O460   1.373   1_545  S
C456        C457   1.404       .  A
C457        C458   1.416       .  A
C457        H461   1.083       .  S
C458        O462   1.370   1_455  S
H459       C1982   1.084       .  S
O460        H464   0.992       .  S
O462        H463   0.992       .  S
C465        C466   1.421       .  A
C465        C470   1.425       .  A
C466        C467   1.385       .  A
C466        H471   1.073       .  S
C467        C468   1.396       .  A
C467        O472   1.374       .  S
C468        C469   1.404       .  A
C469        C470   1.416       .  A
C469        H473   1.083       .  S
C470        O474   1.372       .  S
O472        H476   0.992       .  S
O474        H475   0.992       .  S
C477        C478   1.403       .  A
C477        C482   1.409       .  A
C478        C479   1.412       .  A
C478        H483   1.083       .  S
C479        C480   1.428       .  A
C479        O484   1.371       .  S
C480        C481   1.414       .  A
C481        C482   1.408       .  A
C481        H485   1.079       .  S
C482        O486   1.372       .  S
O484        H488   0.991       .  S
O486        H487   0.992       .  S
C489        C490   1.399       .  A
C489        C494   1.404       .  A
C490        C491   1.412       .  A
C490        H495   1.083       .  S
C491        C492   1.427       .  A
C491        O496   1.374       .  S
C492       C1668   1.572       .  S
C492        C493   1.416       .  A
C493        C494   1.394       .  A
C493       H2025   1.078       .  S
C494        O498   1.374       .  S
O496        H500   0.992       .  S
H497       C2021   1.078   1_545  S
O498       H2027   0.992       .  S
H499       O2026   0.992   1_545  S
C501        C502   1.405       .  A
C501        C506   1.407       .  A
C502        C503   1.396       .  A
C502        H507   1.083       .  S
C503        C504   1.418       .  A
C503        O508   1.371       .  S
C504       C1667   1.561       .  S
C504        C505   1.415       .  A
C505        C506   1.401       .  A
C505        H509   1.082       .  S
C506        O510   1.372       .  S
O508        H512   0.992       .  S
O510        H511   0.992       .  S
C513        C514   1.404       .  A
C513        C518   1.408       .  A
C514        C515   1.412       .  A
C514        H519   1.083       .  S
C515        C516   1.424       .  A
C515        O520   1.371   1_455  S
C516        C517   1.417       .  A
C517        C518   1.389       .  A
C517       H2049   1.079       .  S
C518        O522   1.373       .  S
O520        H524   0.992       .  S
H521       C2045   1.078   1_545  S
O522        H523   0.992       .  S
C525        C526   1.406       .  A
C525        C530   1.407       .  A
C526        C527   1.415       .  A
C526        H531   1.083       .  S
C527        C528   1.424       .  A
C527        O532   1.373       .  S
C528        C529   1.414       .  A
C529        C530   1.403       .  A
C529        H533   1.079       .  S
C530        O534   1.372       .  S
O532        H536   0.992       .  S
O534        H535   0.992       .  S
C537        C538   1.418       .  A
C537        C542   1.423       .  A
C538        C539   1.419       .  A
C538        H543   1.081       .  S
C539        C540   1.412       .  A
C539        O544   1.370       .  S
C540        C541   1.397       .  A
C541        C542   1.377       .  A
C541        H545   1.084       .  S
C542        O546   1.374       .  S
O544        H548   0.992       .  S
O546        H547   0.992       .  S
C549        C550   1.404       .  A
C549        C554   1.402       .  A
C550        C551   1.415   1_455  A
C550        H555   1.083       .  S
C551        C552   1.424   1_655  A
C551        O556   1.373       .  S
C552       C1575   1.567   1_455  S
C552        C553   1.417       .  A
C553        C554   1.387       .  A
C553        H557   1.079   1_545  S
C554        O558   1.372       .  S
O556        H560   0.992       .  S
O558        H559   0.992       .  S
C561        C562   1.404       .  A
C561        C566   1.409       .  A
C562        C563   1.386       .  A
C562        H567   1.083       .  S
C563        C564   1.418       .  A
C563        O568   1.373       .  S
C564        C565   1.421       .  A
C565        C566   1.411       .  A
C565        H569   1.079   1_455  S
C566        O570   1.371       .  S
O568        H572   0.992       .  S
O570        H571   0.992       .  S
C573        C574   1.397       .  A
C573        C578   1.412       .  A
C574        C575   1.396       .  A
C574        H579   1.084       .  S
C575        C576   1.433       .  A
C575        O580   1.375   1_545  S
C576       C1622   1.566   1_545  S
C576        C577   1.413       .  A
C577        C578   1.408       .  A
C577        H581   1.083   1_655  S
C578        O582   1.371       .  S
O580        H584   0.993       .  S
O582        H583   0.992       .  S
C585        C586   1.407       .  A
C585        C590   1.412       .  A
C586        C587   1.413       .  A
C586        H591   1.083       .  S
C587        C588   1.424       .  A
C587        O592   1.370       .  S
C588       C1575   1.561       .  S
C588        C589   1.412       .  A
C589        C590   1.388       .  A
C589        H593   1.084   1_545  S
C590        O594   1.372       .  S
O592        H596   0.992   1_655  S
O594        H595   0.992   1_545  S
C597       C1670   1.575   1_545  S
C597        C598   1.420       .  A
C597        C602   1.434       .  A
C598        C599   1.406       .  A
C598        H603   1.084       .  S
C599        C600   1.402       .  A
C599        O604   1.371       .  S
C600        C601   1.390       .  A
C601        C602   1.391       .  A
C601        H605   1.085       .  S
C602        O606   1.370   1_545  S
O604        H608   0.992       .  S
O606        H607   0.991   1_565  S
C609        C610   1.392       .  A
C609        C614   1.406       .  A
C610        C611   1.401       .  A
C610        H615   1.084       .  S
C611        C612   1.433       .  A
C611        O616   1.375       .  S
C612        C613   1.414       .  A
C613        C614   1.408       .  A
C613        H617   1.083       .  S
C614        O618   1.371       .  S
O616        H620   0.993       .  S
O618        H619   0.992       .  S
C621        C622   1.402       .  A
C621        C626   1.409       .  A
C622        C623   1.384       .  A
C622        H627   1.083       .  S
C623        C624   1.421       .  A
C623        O628   1.374       .  S
C624        C625   1.415       .  A
C625        C626   1.407       .  A
C625        H629   1.079       .  S
C626        O630   1.371       .  S
O628        H632   0.992       .  S
O630        H631   0.992       .  S
C633        C634   1.399       .  A
C633        C638   1.406       .  A
C634        C635   1.393       .  A
C634        H639   1.084       .  S
C635        C636   1.428       .  A
C635       O2168   1.374       .  S
C636        C637   1.417       .  A
C637        C638   1.405       .  A
C637        H641   1.083   1_655  S
C638        O642   1.371       .  S
O640       C2163   1.374   1_545  S
O640        H644   0.993       .  S
O642        H643   0.992       .  S
C645        C646   1.397       .  A
C645        C650   1.402       .  A
C646        C647   1.401       .  A
C646        H651   1.084       .  S
C647        C648   1.432       .  A
C647        O652   1.374       .  S
C648        C649   1.418       .  A
C649        C650   1.395       .  A
C649        H653   1.071       .  S
C650        O654   1.373       .  S
O652        H656   0.992       .  S
O654        H655   0.992       .  S
C657        C658   1.396       .  A
C657        C662   1.410       .  A
C658        C659   1.397       .  A
C658        H663   1.084       .  S
C659        C660   1.430       .  A
C659        O664   1.372       .  S
C660       C1693   1.577       .  S
C660        C661   1.413       .  A
C661        C662   1.404       .  A
C661        H665   1.077       .  S
C662        O666   1.372       .  S
O664        H668   0.992       .  S
O666        H667   0.992       .  S
C669        C670   1.415       .  A
C669        C674   1.427       .  A
C670        C671   1.402       .  A
C670        H675   1.078       .  S
C671        C672   1.407       .  A
C671        O676   1.372       .  S
C672        C673   1.395       .  A
C673        C674   1.396       .  A
C673        H677   1.084       .  S
C674        O678   1.372       .  S
O676        H680   0.992       .  S
O678        H679   0.992       .  S
C681        C682   1.418       .  A
C681        C686   1.422       .  A
C682        C683   1.387       .  A
C682        H687   1.083       .  S
C683        C684   1.404       .  A
C683        O688   1.372       .  S
C684        C685   1.408       .  A
C685        C686   1.412       .  A
C685        H689   1.084       .  S
C686        O690   1.371       .  S
O688        H692   0.992       .  S
O690        H691   0.992       .  S
C693        C694   1.419       .  A
C693        C698   1.419       .  A
C694        C695   1.393       .  A
C694        H699   1.082       .  S
C695        C696   1.398       .  A
C695        O700   1.373       .  S
C696        C697   1.404       .  A
C697        C698   1.412       .  A
C697        H701   1.083       .  S
C698        O702   1.369       .  S
O700        H704   0.992       .  S
O702        H703   0.992       .  S
C705        C706   1.413       .  A
C705        C710   1.429       .  A
C706        C707   1.406       .  A
C706        H711   1.083       .  S
C707        C708   1.405       .  A
C707        O712   1.371       .  S
C708        C709   1.395       .  A
C709        C710   1.402       .  A
C709        H713   1.084       .  S
C710        O714   1.375       .  S
O712        H716   0.992       .  S
O714        H715   0.992       .  S
C717        C718   1.419       .  A
C717        C722   1.423       .  A
C718        C719   1.401       .  A
C718        H723   1.079       .  S
C719        C720   1.407       .  A
C719        O724   1.372       .  S
C720        C721   1.401       .  A
C721        C722   1.398       .  A
C721        H725   1.084       .  S
C722        O726   1.371       .  S
O724        H728   0.992       .  S
O726        H727   0.992       .  S
C729        C730   1.420       .  A
C729        C734   1.419       .  A
C730        C731   1.401       .  A
C730        H735   1.080       .  S
C731        C732   1.406       .  A
C731        O736   1.372       .  S
C732        C733   1.405       .  A
C733        C734   1.398       .  A
C733        H737   1.083       .  S
C734        O738   1.374       .  S
O736        H740   0.992       .  S
O738        H739   0.992       .  S
C741        C742   1.400       .  A
C741        C746   1.402       .  A
C742        C743   1.409       .  A
C742        H747   1.083       .  S
C743        C744   1.425       .  A
C743        O748   1.373       .  S
C744        C745   1.417       .  A
C745        C746   1.389       .  A
C745        H749   1.075       .  S
C746        O750   1.373       .  S
O748        H752   0.992       .  S
O750        H751   0.992       .  S
C753        C754   1.411       .  A
C753        C758   1.427       .  A
C754        C755   1.382       .  A
C754        H759   1.084       .  S
C755        C756   1.403       .  A
C755        O760   1.371       .  S
C756        C757   1.402       .  A
C757        C758   1.413       .  A
C757        H761   1.083       .  S
C758        O762   1.370       .  S
O760        H764   0.992       .  S
O762        H763   0.991       .  S
C765       C1481   1.570       .  S
C765       C1493   1.565       .  S
C765       C1508   1.559       .  S
C765       C1517   1.559       .  S
C766       C1433   1.569       .  S
C766       C1445   1.566       .  S
C766       C1457   1.565       .  S
C766       C1469   1.562       .  S
Fe767       O783   2.082       .  S
Fe767       O773   2.024       .  S
Fe767       O780   2.054       .  S
Fe767       O772   2.063       .  S
Fe767       O778   1.967       .  S
Fe768       O771   2.028       .  S
Fe768       O775   2.051       .  S
Fe768       O779   2.059       .  S
Fe768       O784   2.031       .  S
Fe768       O778   1.956       .  S
Fe769       O787   2.083       .  S
Fe769       O774   2.096       .  S
Fe769       O781   2.100       .  S
Fe769       O770   2.084       .  S
Fe769       O778   1.991       .  S
O770        C777   1.271       .  A
O771        C785   1.264       .  A
O772        C777   1.269       .  A
O773        C776   1.264       .  A
O774        C786   1.275       .  A
O775        C788   1.264       .  A
C776        O781   1.274       .  A
C776       C1505   1.471       .  S
C777       C1460   1.475       .  S
O779        C782   1.267       .  A
O780        C782   1.265       .  A
C782       C1409   1.474       .  S
O783        C788   1.271       .  A
O784        C786   1.266       .  A
C785        O787   1.270       .  A
C785       C1385   1.483       .  S
C786       C1397   1.484       .  S
C788       C1421   1.484       .  S
Fe789       O805   2.078       .  S
Fe789       O795   2.050       .  S
Fe790       O801   2.067       .  S
Fe790       O806   2.064       .  S
Fe790       O800   1.940       .  S
Fe791       O796   2.082   1_554  S
Fe791       O792   2.097   1_554  S
Fe791       O800   1.973   1_554  S
O792        C799   1.271       .  A
O793        C807   1.263       .  A
O794        C799   1.264       .  A
O795        C798   1.270       .  A
O796        C808   1.279       .  A
O797        C810   1.270       .  A
C798        O803   1.276       .  A
C798       C1520   1.480       .  S
C799       C1472   1.470       .  S
O801        C804   1.267       .  A
O802        C804   1.264       .  A
C804       C1364   1.466       .  S
O805        C810   1.271       .  A
O806        C808   1.275       .  A
C807        O809   1.267       .  A
C807       C1337   1.490       .  S
C808       C1349   1.492       .  S
C810       C1373   1.473       .  S
C811       C2844   1.563   1_655  S
C811       C1328   1.568   1_655  S
C811       C2880   1.559       .  S
C811       C1400   1.564       .  S
Fe812       O828   2.093       .  S
Fe812       O818   2.043       .  S
Fe813       O824   2.063       .  S
Fe813       O829   2.039       .  S
Fe813       O823   1.932       .  S
Fe814       O819   2.097       .  S
Fe814       O815   2.138       .  S
Fe814       O823   1.969       .  S
O815        C822   1.286       .  A
O816        C830   1.266       .  A
O817        C822   1.274       .  A
O818        C821   1.263       .  A
O819        C831   1.278       .  A
O820        C833   1.270       .  A
C821        O826   1.269       .  A
C821       C1304   1.487       .  S
C822       C1289   1.495       .  S
O824        C827   1.268       .  A
O825        C827   1.264       .  A
C827       C1265   1.481       .  S
O828        C833   1.278       .  A
O829        C831   1.269       .  A
C830        O832   1.276       .  A
C830       C1277   1.489       .  S
C831       C1325   1.492       .  S
C833       C1253   1.477       .  S
Fe834       O850   2.078       .  S
Fe834       O840   2.051       .  S
Fe834       O847   2.079       .  S
Fe834       O839   2.069       .  S
Fe834       O845   1.956       .  S
Fe835       O838   2.032       .  S
Fe835       O842   2.063       .  S
Fe835       O846   2.048       .  S
Fe835       O851   2.048       .  S
Fe835       O845   1.945       .  S
Fe836       O854   2.115       .  S
Fe836       O841   2.083       .  S
Fe836       O848   2.084       .  S
Fe836       O837   2.130       .  S
Fe836       O845   1.980       .  S
O837        C844   1.284       .  A
O838        C852   1.267       .  A
O839        C844   1.274       .  A
O840        C843   1.267       .  A
O841        C853   1.271       .  A
O842        C855   1.268       .  A
C843        O848   1.268       .  A
C843       C1232   1.477       .  S
C844       C1241   1.497       .  S
O846        C849   1.267       .  A
O847        C849   1.269       .  A
C849       C1196   1.483       .  S
O850        C855   1.271       .  A
O851        C853   1.266       .  A
C852        O854   1.280       .  A
C852       C1220   1.491       .  S
C853       C1313   1.481       .  S
C855       C1205   1.475       .  S
C856       C1169   1.580       .  S
C856       C1181   1.575       .  S
C856       C1244   1.582       .  S
C856       C1292   1.571       .  S
C857       C1148   1.566       .  S
C857       C1157   1.569       .  S
C857       C1229   1.570       .  S
C857       C1301   1.558       .  S
C858       C2745   1.572   1_655  S
C858       C1280   1.572   1_655  S
C858       C2868   1.563       .  S
C858       C1388   1.553       .  S
Fe859       O875   2.069       .  S
Fe859       O865   2.021       .  S
Fe859       O872   2.051       .  S
Fe859       O864   2.043       .  S
Fe859       O870   1.968       .  S
Fe860       O863   2.039       .  S
Fe860       O867   2.063       .  S
Fe860       O871   2.049       .  S
Fe860       O876   2.036       .  S
Fe860       O870   1.966       .  S
Fe861       O879   2.084       .  S
Fe861       O866   2.102       .  S
Fe861       O873   2.111       .  S
Fe861       O862   2.091       .  S
Fe861       O870   2.000       .  S
O862        C869   1.274       .  A
O863        C877   1.268       .  A
O864        C869   1.268       .  A
O865        C868   1.261       .  A
O866        C878   1.274       .  A
O867        C880   1.268       .  A
C868        O873   1.273       .  A
C868       C1121   1.492       .  S
C869       C1136   1.470       .  S
O871        C874   1.264       .  A
O872        C874   1.262       .  A
C874       C1145   1.476       .  S
O875        C880   1.269       .  A
O876        C878   1.263       .  A
C877        O879   1.273       .  A
C877       C1109   1.487       .  S
C878       C1097   1.482       .  S
C880       C1184   1.471       .  S
Fe881       O897   2.077   1_554  S
Fe881       O887   2.031   1_554  S
Fe882       O893   2.072       .  S
Fe882       O898   2.064       .  S
Fe882       O892   1.970       .  S
Fe883       O888   2.087       .  S
Fe883       O884   2.069       .  S
Fe883       O892   1.997       .  S
O884        C891   1.270       .  A
O885        C899   1.274       .  A
O886        C891   1.270       .  A
O887        C890   1.261       .  A
O888        C900   1.271       .  A
O889        C902   1.271       .  A
C890        O895   1.271       .  A
C890       C1076   1.485       .  S
C891       C1088   1.462       .  S
O893        C896   1.269       .  A
O894        C896   1.262       .  A
C896       C1160   1.466       .  S
O897        C902   1.270       .  A
O898        C900   1.266       .  A
C899        O901   1.271       .  A
C899       C1052   1.478       .  S
C900       C1064   1.478       .  S
C902       C1172   1.482       .  S
C903       C1073   1.567       .  S
C903       C2652   1.563   1_545  S
C903       C1193   1.564       .  S
C903       C2796   1.563   1_545  S
C904       C1085   1.558   1_565  S
C904       C2661   1.555       .  S
C904       C1208   1.567   1_565  S
C904       C2784   1.569       .  S
C905       C1025   1.565       .  S
C905       C1037   1.569       .  S
C905       C1049   1.566       .  S
C905       C1112   1.561       .  S
C906       C2532   1.578       .  S
C906       C1013   1.550       .  S
C906       C2889   1.578       .  S
C906       C1412   1.579       .  S
Fe907       O923   2.062       .  S
Fe907       O913   2.050       .  S
Fe907       O920   2.070       .  S
Fe907       O912   2.047       .  S
Fe907       O918   1.958       .  S
Fe908       O911   2.037       .  S
Fe908       O915   2.061       .  S
Fe908       O919   2.054       .  S
Fe908       O924   2.058       .  S
Fe908       O918   1.953       .  S
Fe909       O927   2.114       .  S
Fe909       O914   2.083       .  S
Fe909       O921   2.096       .  S
Fe909       O910   2.116       .  S
Fe909       O918   1.979       .  S
O910        C917   1.279       .  A
O911        C925   1.268       .  A
O912        C917   1.270       .  A
O913        C916   1.266       .  A
O914        C926   1.270       .  A
O915        C928   1.269       .  A
C916        O921   1.271       .  A
C916       C1001   1.478       .  S
C917        C989   1.487       .  S
O919        C922   1.268       .  A
O920        C922   1.269       .  A
C922       C1496   1.477       .  S
O923        C928   1.267       .  A
O924        C926   1.266       .  A
C925        O927   1.280       .  A
C925       C1028   1.489       .  S
C926        C980   1.474       .  S
C928       C1436   1.483       .  S
C929       C2493   1.561   1_545  S
C929        C992   1.574       .  S
C929       C1376   1.573       .  S
C929       C2952   1.575   1_545  S
Fe930       O946   2.058   1_554  S
Fe930       O936   2.063   1_554  S
Fe931       O942   2.052       .  S
Fe931       O947   2.062       .  S
Fe931       O941   1.926       .  S
Fe932       O937   2.069       .  S
Fe932       O933   2.129       .  S
Fe932       O941   1.967       .  S
O933        C940   1.280       .  A
O934        C948   1.266       .  A
O935        C940   1.266       .  A
O936        C939   1.270       .  A
O937        C949   1.274       .  A
O938        C951   1.279       .  A
C939        O944   1.268       .  A
C939       C1016   1.477       .  S
C940        C968   1.482       .  S
O942        C945   1.263       .  A
O943        C945   1.267       .  A
C945       C1484   1.481       .  S
O946        C951   1.271       .  A
O947        C949   1.272       .  A
C948        O950   1.274       .  A
C948       C1040   1.486       .  S
C949        C953   1.464       .  S
C951       C1448   1.490       .  S
C952        C956   1.555       .  S
C952        C977   1.567       .  S
C952       C1061   1.573       .  S
C952       C1100   1.571       .  S
C953        C954   1.398       .  A
C953        C958   1.398       .  A
C954        C955   1.399       .  A
C954        H959   1.084       .  S
C955        C956   1.423       .  A
C955        O960   1.370       .  S
C956        C957   1.420       .  A
C957        C958   1.398       .  A
C957        H961   1.083       .  S
C958        O962   1.372       .  S
O960        H964   0.992       .  S
O962        H963   0.992       .  S
C965       C2457   1.559       .  S
C965        C966   1.414       .  A
C965        C970   1.422       .  A
C966        C967   1.380       .  A
C966        H971   1.084       .  S
C967        C968   1.402       .  A
C967        O972   1.374       .  S
C968        C969   1.409       .  A
C969        C970   1.422       .  A
C969        H973   1.083       .  S
C970        O974   1.370       .  S
O972        H976   0.992       .  S
O974        H975   0.992       .  S
C977        C978   1.415       .  A
C977        C982   1.427       .  A
C978        C979   1.397       .  A
C978        H983   1.079       .  S
C979        C980   1.401       .  A
C979        O984   1.372       .  S
C980        C981   1.398       .  A
C981        C982   1.409       .  A
C981        H985   1.084       .  S
C982        O986   1.370       .  S
O984        H988   0.991       .  S
O986        H987   0.992       .  S
C989        C990   1.408       .  A
C989        C994   1.399       .  A
C990        C991   1.421       .  A
C990        H995   1.083       .  S
C991        C992   1.423       .  A
C991        O996   1.370       .  S
C992        C993   1.422       .  A
C993        C994   1.388       .  A
C993        H997   1.079       .  S
C994        O998   1.375       .  S
O996       H1000   0.992       .  S
O998        H999   0.992       .  S
C1001      C1002   1.402       .  A
C1001      C1006   1.396       .  A
C1002      C1003   1.416       .  A
C1002      H1007   1.083       .  S
C1003      C1004   1.429       .  A
C1003      O1008   1.370       .  S
C1004      C2434   1.577   1_545  S
C1004      C1005   1.419       .  A
C1005      C1006   1.389       .  A
C1005      H1009   1.071   1_545  S
C1006      O1010   1.372       .  S
O1008      H1012   0.991       .  S
O1010      H1011   0.992       .  S
C1013      C1014   1.416       .  A
C1013      C1018   1.426       .  A
C1014      C1015   1.411       .  A
C1014      H1019   1.080       .  S
C1015      C1016   1.408       .  A
C1015      O1020   1.371       .  S
C1016      C1017   1.396       .  A
C1017      C1018   1.385       .  A
C1017      H1021   1.085       .  S
C1018      O1022   1.373       .  S
O1020      H1024   0.992       .  S
O1022      H1023   0.992       .  S
C1025      C1026   1.414       .  A
C1025      C1030   1.426       .  A
C1026      C1027   1.387       .  A
C1026      H1031   1.083       .  S
C1027      C1028   1.408       .  A
C1027      O1032   1.373       .  S
C1028      C1029   1.405       .  A
C1029      C1030   1.419       .  A
C1029      H1033   1.083       .  S
C1030      O1034   1.373       .  S
O1032      H1036   0.992       .  S
O1034      H1035   0.992       .  S
C1037      C1038   1.420       .  A
C1037      C1042   1.429       .  A
C1038      C1039   1.408       .  A
C1038      H1043   1.083       .  S
C1039      C1040   1.406       .  A
C1039      O1044   1.371       .  S
C1040      C1041   1.399       .  A
C1041      C1042   1.392       .  A
C1041      H1045   1.084       .  S
C1042      O1046   1.372       .  S
O1044      H1048   0.992       .  S
O1046      H1047   0.992       .  S
C1049      C1050   1.422       .  A
C1049      C1054   1.420       .  A
C1050      C1051   1.393       .  A
C1050      H1055   1.079       .  S
C1051      C1052   1.400       .  A
C1051      O1056   1.373       .  S
C1052      C1053   1.403       .  A
C1053      C1054   1.410       .  A
C1053      H1057   1.084       .  S
C1054      O1058   1.373       .  S
O1056      H1060   0.992       .  S
O1058      H1059   0.992       .  S
C1061      C1062   1.419       .  A
C1061      C1066   1.430       .  A
C1062      C1063   1.407       .  A
C1062      H1067   1.083       .  S
C1063      C1064   1.403       .  A
C1063      O1068   1.371       .  S
C1064      C1065   1.396       .  A
C1065      C1066   1.404       .  A
C1065      H1069   1.084       .  S
C1066      O1070   1.374       .  S
O1068      H1072   0.992       .  S
O1070      H1071   0.993       .  S
C1073      C1074   1.421       .  A
C1073      C1078   1.431       .  A
C1074      C1075   1.413       .  A
C1074      H1079   1.082   1_545  S
C1075      C1076   1.405       .  A
C1075      O1080   1.371       .  S
C1076      C1077   1.395       .  A
C1077      C1078   1.396       .  A
C1077      H1081   1.084       .  S
C1078      O1082   1.371       .  S
O1080      H1084   0.992       .  S
O1082      H1083   0.992       .  S
C1085      C1086   1.413       .  A
C1085      C1090   1.424       .  A
C1086      C1087   1.395       .  A
C1086      H1091   1.080       .  S
C1087      C1088   1.402       .  A
C1087      O1092   1.372       .  S
C1088      C1089   1.396       .  A
C1089      C1090   1.401       .  A
C1089      H1093   1.084       .  S
C1090      O2622   1.371   1_545  S
O1092      H1096   0.992       .  S
O1094      C2618   1.371       .  S
O1094      H1095   0.992       .  S
C1097      C1098   1.399       .  A
C1097      C1102   1.405       .  A
C1098      C1099   1.409       .  A
C1098      H1103   1.083       .  S
C1099      C1100   1.428       .  A
C1099      O1104   1.372       .  S
C1100      C1101   1.411       .  A
C1101      C1102   1.396       .  A
C1101      H1105   1.079       .  S
C1102      O1106   1.370       .  S
O1104      H1108   0.992       .  S
O1106      H1107   0.992       .  S
C1109      C1110   1.402       .  A
C1109      C1114   1.410       .  A
C1110      C1111   1.388       .  A
C1110      H1115   1.083       .  S
C1111      C1112   1.419       .  A
C1111      O1116   1.373       .  S
C1112      C1113   1.416       .  A
C1113      C1114   1.406       .  A
C1113      H1117   1.079       .  S
C1114      O1118   1.371       .  S
O1116      H1120   0.992       .  S
O1118      H1119   0.992       .  S
C1121      C1122   1.400       .  A
C1121      C1126   1.409       .  A
C1122      C1123   1.388       .  A
C1122      H1127   1.084       .  S
C1123      C1124   1.422       .  A
C1123      O1128   1.373       .  S
C1124      C2431   1.560       .  S
C1124      C1125   1.419       .  A
C1125      C1126   1.417       .  A
C1125      H1129   1.081       .  S
C1126      O1130   1.370       .  S
O1128      H1132   0.992       .  S
O1130      H1131   0.992       .  S
C1133      C2432   1.560       .  S
C1133      C1134   1.412       .  A
C1133      C1138   1.425       .  A
C1134      C1135   1.396       .  A
C1134      H1139   1.080       .  S
C1135      C1136   1.404       .  A
C1135      O1140   1.373       .  S
C1136      C1137   1.397       .  A
C1137      C1138   1.406       .  A
C1137      H1141   1.084       .  S
C1138      O1142   1.374       .  S
O1140      H1144   0.992       .  S
O1142      H1143   0.992       .  S
C1145      C1146   1.402       .  A
C1145      C1150   1.403       .  A
C1146      C1147   1.400       .  A
C1146      H1151   1.083       .  S
C1147      C1148   1.425       .  A
C1147      O1152   1.374       .  S
C1148      C1149   1.412       .  A
C1149      C1150   1.391       .  A
C1149      H1153   1.076       .  S
C1150      O1154   1.369       .  S
O1152      H1156   0.992       .  S
O1154      H1155   0.992       .  S
C1157      C1158   1.418       .  A
C1157      C1162   1.424       .  A
C1158      C1159   1.389       .  A
C1158      H1163   1.080       .  S
C1159      C1160   1.397       .  A
C1159      O1164   1.373       .  S
C1160      C1161   1.401       .  A
C1161      C1162   1.412       .  A
C1161      H1165   1.083       .  S
C1162      O1166   1.375       .  S
O1164      H1168   0.992       .  S
O1166      H1167   0.992       .  S
C1169      C1170   1.420       .  A
C1169      C1174   1.435       .  A
C1170      C1171   1.407       .  A
C1170      H1175   1.083       .  S
C1171      C1172   1.403       .  A
C1171      O1176   1.371       .  S
C1172      C1173   1.395       .  A
C1173      C1174   1.404       .  A
C1173      H1177   1.084       .  S
C1174      O1178   1.372       .  S
O1176      H1180   0.992       .  S
O1178      H1179   0.992       .  S
C1181      C1182   1.421       .  A
C1181      C1186   1.427       .  A
C1182      C1183   1.396       .  A
C1182      H1187   1.079       .  S
C1183      C1184   1.398       .  A
C1183      O1188   1.373       .  S
C1184      C1185   1.397       .  A
C1185      C1186   1.407       .  A
C1185      H1189   1.084       .  S
C1186      O1190   1.372       .  S
O1188      H1192   0.992       .  S
O1190      H1191   0.992       .  S
C1193      C1194   1.416       .  A
C1193      C1198   1.422       .  A
C1194      C1195   1.390       .  A
C1194      H2727   1.078   1_545  S
C1195      C1196   1.403       .  A
C1195      O1200   1.371       .  S
C1196      C1197   1.406       .  A
C1197      C1198   1.406       .  A
C1197      H1201   1.083       .  S
C1198      O1202   1.374       .  S
H1199      C2722   1.078       .  S
O1200      H1204   0.992   1_545  S
O1202      H1203   0.991       .  S
C1205      C1206   1.398       .  A
C1205      C1210   1.404       .  A
C1206      C1207   1.408       .  A
C1206      H1211   1.084       .  S
C1207      C1208   1.426       .  A
C1207      O2740   1.374       .  S
C1208      C1209   1.416       .  A
C1209      C1210   1.394       .  A
C1209      H1213   1.079   1_545  S
C1210      O1214   1.373       .  S
O1212      C2735   1.374       .  S
O1212      H1216   0.992       .  S
O1214      H1215   0.992       .  S
C1217      C2386   1.574   1_445  S
C1217      C1218   1.413       .  A
C1217      C1222   1.429       .  A
C1218      C1219   1.387       .  A
C1218      H2751   1.084   1_545  S
C1219      C1220   1.410       .  A
C1219      O1224   1.373   1_545  S
C1220      C1221   1.404       .  A
C1221      C1222   1.415       .  A
C1221      H1225   1.083       .  S
C1222      O1226   1.371   1_455  S
H1223      C2746   1.084       .  S
O1224      H1228   0.992       .  S
O1226      H1227   0.992       .  S
C1229      C1230   1.421       .  A
C1229      C1234   1.425       .  A
C1230      C1231   1.385       .  A
C1230      H1235   1.073       .  S
C1231      C1232   1.396       .  A
C1231      O1236   1.374       .  S
C1232      C1233   1.404       .  A
C1233      C1234   1.416       .  A
C1233      H1237   1.083       .  S
C1234      O1238   1.372       .  S
O1236      H1240   0.992       .  S
O1238      H1239   0.992       .  S
C1241      C1242   1.403       .  A
C1241      C1246   1.409       .  A
C1242      C1243   1.412       .  A
C1242      H1247   1.083       .  S
C1243      C1244   1.428       .  A
C1243      O1248   1.371       .  S
C1244      C1245   1.415       .  A
C1245      C1246   1.408       .  A
C1245      H1249   1.079       .  S
C1246      O1250   1.372       .  S
O1248      H1252   0.991       .  S
O1250      H1251   0.992       .  S
C1253      C1254   1.399       .  A
C1253      C1258   1.404       .  A
C1254      C1255   1.411       .  A
C1254      H1259   1.083       .  S
C1255      C1256   1.428       .  A
C1255      O1260   1.374       .  S
C1256      C2432   1.572       .  S
C1256      C1257   1.416       .  A
C1257      C1258   1.394       .  A
C1257      H2789   1.078       .  S
C1258      O1262   1.374       .  S
O1260      H1264   0.992       .  S
H1261      C2785   1.078   1_545  S
O1262      H2791   0.992       .  S
H1263      O2790   0.992   1_545  S
C1265      C1266   1.405       .  A
C1265      C1270   1.407       .  A
C1266      C1267   1.396       .  A
C1266      H1271   1.083       .  S
C1267      C1268   1.418       .  A
C1267      O1272   1.371       .  S
C1268      C2431   1.561       .  S
C1268      C1269   1.415       .  A
C1269      C1270   1.401       .  A
C1269      H1273   1.082       .  S
C1270      O1274   1.372       .  S
O1272      H1276   0.992       .  S
O1274      H1275   0.992       .  S
C1277      C1278   1.404       .  A
C1277      C1282   1.408       .  A
C1278      C1279   1.412       .  A
C1278      H1283   1.083       .  S
C1279      C1280   1.424       .  A
C1279      O1284   1.371   1_455  S
C1280      C1281   1.417       .  A
C1281      C1282   1.389       .  A
C1281      H2813   1.079       .  S
C1282      O1286   1.373       .  S
O1284      H1288   0.992       .  S
H1285      C2809   1.078   1_545  S
O1286      H1287   0.992       .  S
C1289      C1290   1.406       .  A
C1289      C1294   1.408       .  A
C1290      C1291   1.415       .  A
C1290      H1295   1.083       .  S
C1291      C1292   1.424       .  A
C1291      O1296   1.373       .  S
C1292      C1293   1.414       .  A
C1293      C1294   1.403       .  A
C1293      H1297   1.079       .  S
C1294      O1298   1.372       .  S
O1296      H1300   0.992       .  S
O1298      H1299   0.992       .  S
C1301      C1302   1.418       .  A
C1301      C1306   1.423       .  A
C1302      C1303   1.419       .  A
C1302      H1307   1.081       .  S
C1303      C1304   1.411       .  A
C1303      O1308   1.370       .  S
C1304      C1305   1.397       .  A
C1305      C1306   1.377       .  A
C1305      H1309   1.084       .  S
C1306      O1310   1.374       .  S
O1308      H1312   0.992       .  S
O1310      H1311   0.992       .  S
C1313      C1314   1.403       .  A
C1313      C1318   1.402       .  A
C1314      C1315   1.414       .  A
C1314      H1319   1.083       .  S
C1315      C1316   1.424       .  A
C1315      O1320   1.373   1_455  S
C1316      C2339   1.566   1_455  S
C1316      C1317   1.416       .  A
C1317      C1318   1.387       .  A
C1317      H1321   1.079   1_545  S
C1318      O1322   1.371       .  S
O1320      H1324   0.992       .  S
O1322      H1323   0.992       .  S
C1325      C1326   1.404       .  A
C1325      C1330   1.409       .  A
C1326      C1327   1.386       .  A
C1326      H1331   1.083       .  S
C1327      C1328   1.419       .  A
C1327      O1332   1.373       .  S
C1328      C1329   1.421       .  A
C1329      C1330   1.411       .  A
C1329      H1333   1.079   1_455  S
C1330      O1334   1.371       .  S
O1332      H1336   0.992       .  S
O1334      H1335   0.992       .  S
C1337      C1338   1.398       .  A
C1337      C1342   1.410       .  A
C1338      C1339   1.395       .  A
C1338      H1343   1.084       .  S
C1339      C1340   1.432       .  A
C1339      O1344   1.375   1_545  S
C1340      C2386   1.566   1_545  S
C1340      C1341   1.414       .  A
C1341      C1342   1.408       .  A
C1341      H1345   1.083   1_655  S
C1342      O1346   1.371       .  S
O1344      H1348   0.993       .  S
O1346      H1347   0.992       .  S
C1349      C1350   1.407       .  A
C1349      C1354   1.412       .  A
C1350      C1351   1.412       .  A
C1350      H1355   1.083       .  S
C1351      C1352   1.424       .  A
C1351      O1356   1.371       .  S
C1352      C2339   1.560       .  S
C1352      C1353   1.412       .  A
C1353      C1354   1.388       .  A
C1353      H1357   1.084   1_545  S
C1354      O1358   1.372       .  S
O1356      H1360   0.992   1_655  S
O1358      H1359   0.992   1_545  S
C1361      C2434   1.575   1_545  S
C1361      C1362   1.418       .  A
C1361      C1366   1.434       .  A
C1362      C1363   1.407       .  A
C1362      H1367   1.083       .  S
C1363      C1364   1.403       .  A
C1363      O1368   1.371       .  S
C1364      C1365   1.390       .  A
C1365      C1366   1.392       .  A
C1365      H1369   1.085       .  S
C1366      O1370   1.371   1_545  S
O1368      H1372   0.992       .  S
O1370      H1371   0.991   1_565  S
C1373      C1374   1.392       .  A
C1373      C1378   1.405       .  A
C1374      C1375   1.401       .  A
C1374      H1379   1.084       .  S
C1375      C1376   1.433       .  A
C1375      O1380   1.375       .  S
C1376      C1377   1.414       .  A
C1377      C1378   1.406       .  A
C1377      H1381   1.083       .  S
C1378      O1382   1.371       .  S
O1380      H1384   0.993       .  S
O1382      H1383   0.992       .  S
C1385      C1386   1.401       .  A
C1385      C1390   1.409       .  A
C1386      C1387   1.384       .  A
C1386      H1391   1.084       .  S
C1387      C1388   1.421       .  A
C1387      O1392   1.374       .  S
C1388      C1389   1.415       .  A
C1389      C1390   1.407       .  A
C1389      H1393   1.079       .  S
C1390      O1394   1.371       .  S
O1392      H1396   0.992       .  S
O1394      H1395   0.992       .  S
C1397      C1398   1.400       .  A
C1397      C1402   1.406       .  A
C1398      C1399   1.393       .  A
C1398      H1403   1.084       .  S
C1399      C1400   1.428       .  A
C1399      O2932   1.374       .  S
C1400      C1401   1.418       .  A
C1401      C1402   1.405       .  A
C1401      H1405   1.083   1_655  S
C1402      O1406   1.371       .  S
O1404      C2927   1.374   1_545  S
O1404      H1408   0.993       .  S
O1406      H1407   0.992       .  S
C1409      C1410   1.397       .  A
C1409      C1414   1.402       .  A
C1410      C1411   1.400       .  A
C1410      H1415   1.084       .  S
C1411      C1412   1.431       .  A
C1411      O1416   1.374       .  S
C1412      C1413   1.418       .  A
C1413      C1414   1.395       .  A
C1413      H1417   1.072       .  S
C1414      O1418   1.373       .  S
O1416      H1420   0.992       .  S
O1418      H1419   0.992       .  S
C1421      C1422   1.397       .  A
C1421      C1426   1.410       .  A
C1422      C1423   1.398       .  A
C1422      H1427   1.084       .  S
C1423      C1424   1.429       .  A
C1423      O1428   1.372       .  S
C1424      C2457   1.578       .  S
C1424      C1425   1.413       .  A
C1425      C1426   1.404       .  A
C1425      H1429   1.077       .  S
C1426      O1430   1.372       .  S
O1428      H1432   0.992       .  S
O1430      H1431   0.992       .  S
C1433      C1434   1.418       .  A
C1433      C1438   1.422       .  A
C1434      C1435   1.404       .  A
C1434      H1439   1.078       .  S
C1435      C1436   1.408       .  A
C1435      O1440   1.372       .  S
C1436      C1437   1.400       .  A
C1437      C1438   1.391       .  A
C1437      H1441   1.084       .  S
C1438      O1442   1.372       .  S
O1440      H1444   0.992       .  S
O1442      H1443   0.992       .  S
C1445      C1446   1.418       .  A
C1445      C1450   1.423       .  A
C1446      C1447   1.390       .  A
C1446      H1451   1.083       .  S
C1447      C1448   1.404       .  A
C1447      O1452   1.372       .  S
C1448      C1449   1.408       .  A
C1449      C1450   1.413       .  A
C1449      H1453   1.084       .  S
C1450      O1454   1.371       .  S
O1452      H1456   0.992       .  S
O1454      H1455   0.992       .  S
C1457      C1458   1.420       .  A
C1457      C1462   1.418       .  A
C1458      C1459   1.395       .  A
C1458      H1463   1.082       .  S
C1459      C1460   1.399       .  A
C1459      O1464   1.373       .  S
C1460      C1461   1.404       .  A
C1461      C1462   1.412       .  A
C1461      H1465   1.083       .  S
C1462      O1466   1.369       .  S
O1464      H1468   0.992       .  S
O1466      H1467   0.992       .  S
C1469      C1470   1.413       .  A
C1469      C1474   1.428       .  A
C1470      C1471   1.404       .  A
C1470      H1475   1.083       .  S
C1471      C1472   1.404       .  A
C1471      O1476   1.371       .  S
C1472      C1473   1.395       .  A
C1473      C1474   1.401       .  A
C1473      H1477   1.084       .  S
C1474      O1478   1.375       .  S
O1476      H1480   0.992       .  S
O1478      H1479   0.992       .  S
C1481      C1482   1.419       .  A
C1481      C1486   1.421       .  A
C1482      C1483   1.398       .  A
C1482      H1487   1.079       .  S
C1483      C1484   1.406       .  A
C1483      O1488   1.372       .  S
C1484      C1485   1.401       .  A
C1485      C1486   1.399       .  A
C1485      H1489   1.084       .  S
C1486      O1490   1.371       .  S
O1488      H1492   0.992       .  S
O1490      H1491   0.992       .  S
C1493      C1494   1.416       .  A
C1493      C1498   1.423       .  A
C1494      C1495   1.397       .  A
C1494      H1499   1.080       .  S
C1495      C1496   1.405       .  A
C1495      O1500   1.372       .  S
C1496      C1497   1.400       .  A
C1497      C1498   1.401       .  A
C1497      H1501   1.084       .  S
C1498      O1502   1.374       .  S
O1500      H1504   0.992       .  S
O1502      H1503   0.992       .  S
C1505      C1506   1.399       .  A
C1505      C1510   1.402       .  A
C1506      C1507   1.407       .  A
C1506      H1511   1.084       .  S
C1507      C1508   1.425       .  A
C1507      O1512   1.373       .  S
C1508      C1509   1.416       .  A
C1509      C1510   1.390       .  A
C1509      H1513   1.076       .  S
C1510      O1514   1.373       .  S
O1512      H1516   0.992       .  S
O1514      H1515   0.992       .  S
C1517      C1518   1.411       .  A
C1517      C1522   1.428       .  A
C1518      C1519   1.383       .  A
C1518      H1523   1.083       .  S
C1519      C1520   1.405       .  A
C1519      O1524   1.372       .  S
C1520      C1521   1.402       .  A
C1521      C1522   1.413       .  A
C1521      H1525   1.083       .  S
C1522      O1526   1.370       .  S
O1524      H1528   0.992       .  S
O1526      H1527   0.991       .  S
C1529      C2245   1.575       .  S
C1529      C2257   1.569       .  S
C1529      C2272   1.560       .  S
C1529      C2281   1.558       .  S
C1530      C2197   1.570       .  S
C1530      C2209   1.557       .  S
C1530      C2221   1.555       .  S
C1530      C2233   1.560       .  S
Fe1531     O1547   2.074       .  S
Fe1531     O1537   2.022       .  S
Fe1531     O1544   2.051       .  S
Fe1531     O1536   2.057       .  S
Fe1531     O1542   1.944       .  S
Fe1532     O1535   2.047       .  S
Fe1532     O1539   2.064       .  S
Fe1532     O1543   2.077       .  S
Fe1532     O1548   2.034       .  S
Fe1532     O1542   1.930       .  S
Fe1533     O1551   2.072       .  S
Fe1533     O1538   2.103       .  S
Fe1533     O1545   2.112       .  S
Fe1533     O1534   2.070       .  S
Fe1533     O1542   1.968       .  S
O1534      C1541   1.268       .  A
O1535      C1549   1.270       .  A
O1536      C1541   1.269       .  A
O1537      C1540   1.265       .  A
O1538      C1550   1.276       .  A
O1539      C1552   1.266       .  A
C1540      O1545   1.277       .  A
C1540      C2269   1.473       .  S
C1541      C2224   1.466       .  S
O1543      C1546   1.272       .  A
O1544      C1546   1.267       .  A
C1546      C2173   1.471       .  S
O1547      C1552   1.269       .  A
O1548      C1550   1.267       .  A
C1549      O1551   1.270       .  A
C1549      C2149   1.485       .  S
C1550      C2161   1.488       .  S
C1552      C2185   1.486       .  S
Fe1553     O1569   2.076   1_556  S
Fe1553     O1559   2.064   1_556  S
Fe1553     O2330   2.056       .  S
Fe1553     O2322   2.045       .  S
Fe1553     O2328   1.942       .  S
Fe1554     O2321   2.039       .  S
Fe1554     O2325   2.076       .  S
Fe1554     O1565   2.064       .  S
Fe1554     O1570   2.062       .  S
Fe1554     O1564   1.930       .  S
Fe1555     O2337   2.086       .  S
Fe1555     O1560   2.080       .  S
Fe1555     O2331   2.087       .  S
Fe1555     O1556   2.095       .  S
Fe1555     O1564   1.967       .  S
O1556      C1563   1.272       .  A
O1557     Fe2318   2.039       .  S
O1557      C1571   1.265       .  A
O1558     Fe2317   2.047       .  S
O1558      C1563   1.263       .  A
O1559      C1562   1.271       .  A
O1560      C1572   1.279       .  A
O1561     Fe2318   2.074       .  S
O1561      C1574   1.271       .  A
C1562      O1567   1.276       .  A
C1562      C2284   1.480       .  S
C1563      C2236   1.466       .  S
O1564     Fe2317   1.942       .  S
O1565      C1568   1.267       .  A
O1566     Fe2317   2.057       .  S
O1566      C1568   1.264       .  A
O1567     Fe2319   2.088   1_554  S
C1568      C2128   1.463       .  S
O1569      C1574   1.271       .  A
O1570      C1572   1.273       .  A
C1571      O1573   1.268       .  A
C1571      C2101   1.487       .  S
C1572      C2113   1.489       .  S
O1573     Fe2319   2.086   1_554  S
C1574      C2137   1.475       .  S
C1575      C2092   1.569   1_645  S
C1575      C2164   1.565   1_545  S
Fe1576     O1592   2.089   1_556  S
Fe1576     O1582   2.031   1_556  S
Fe1576     O2353   2.044       .  S
Fe1576     O2345   2.066       .  S
Fe1576     O2351   1.948       .  S
Fe1577     O2344   2.046       .  S
Fe1577     O2348   2.056       .  S
Fe1577     O1588   2.074       .  S
Fe1577     O1593   2.036       .  S
Fe1577     O1587   1.950       .  S
Fe1578     O2360   2.104       .  S
Fe1578     O1583   2.104       .  S
Fe1578     O2354   2.107       .  S
Fe1578     O1579   2.130       .  S
Fe1578     O1587   1.983       .  S
O1579      C1586   1.282       .  A
O1580     Fe2341   2.046   1_554  S
O1580      C1594   1.267       .  A
O1581     Fe2340   2.065       .  S
O1581      C1586   1.273       .  A
O1582      C1585   1.264       .  A
O1583      C1595   1.279       .  A
O1584     Fe2341   2.054   1_554  S
O1584      C1597   1.268       .  A
C1585      O1590   1.272       .  A
C1585      C2068   1.495       .  S
C1586      C2053   1.497       .  S
O1587     Fe2340   1.946       .  S
O1588      C1591   1.269       .  A
O1589     Fe2340   2.045       .  S
O1589      C1591   1.262       .  A
O1590     Fe2342   2.105   1_554  S
C1591      C2029   1.486       .  S
O1592      C1597   1.276       .  A
O1593      C1595   1.269       .  A
C1594      O1596   1.274       .  A
C1594      C2041   1.493       .  S
C1595      C2089   1.494       .  S
O1596     Fe2342   2.100   1_554  S
C1597      C2017   1.473       .  S
Fe1598     O1614   2.078       .  S
Fe1598     O1604   2.051       .  S
Fe1598     O1611   2.079       .  S
Fe1598     O1603   2.070       .  S
Fe1598     O1609   1.951       .  S
Fe1599     O1602   2.033       .  S
Fe1599     O1606   2.067       .  S
Fe1599     O1610   2.049       .  S
Fe1599     O1615   2.048       .  S
Fe1599     O1609   1.946       .  S
Fe1600     O1618   2.108       .  S
Fe1600     O1605   2.083       .  S
Fe1600     O1612   2.083       .  S
Fe1600     O1601   2.126       .  S
Fe1600     O1609   1.979       .  S
O1601      C1608   1.283       .  A
O1602      C1616   1.267       .  A
O1603      C1608   1.274       .  A
O1604      C1607   1.268       .  A
O1605      C1617   1.271       .  A
O1606      C1619   1.268       .  A
C1607      O1612   1.268       .  A
C1607      C1996   1.478       .  S
C1608      C2005   1.496       .  S
O1610      C1613   1.266       .  A
O1611      C1613   1.270       .  A
C1613      C1960   1.482       .  S
O1614      C1619   1.271       .  A
O1615      C1617   1.266       .  A
C1616      O1618   1.279       .  A
C1616      C1984   1.486       .  S
C1617      C2077   1.478       .  S
C1619      C1969   1.476       .  S
C1620      C1933   1.579       .  S
C1620      C1945   1.576       .  S
C1620      C2008   1.580       .  S
C1620      C2056   1.573       .  S
C1621      C1912   1.569       .  S
C1621      C1921   1.570       .  S
C1621      C1993   1.569       .  S
C1621      C2065   1.558       .  S
C1622      C2044   1.576   1_655  S
C1622      C2152   1.554       .  S
Fe1623     O1639   2.070       .  S
Fe1623     O1629   2.036       .  S
Fe1623     O1636   2.068       .  S
Fe1623     O1628   2.042       .  S
Fe1623     O1634   1.956       .  S
Fe1624     O1627   2.029       .  S
Fe1624     O1631   2.073       .  S
Fe1624     O1635   2.045       .  S
Fe1624     O1640   2.036       .  S
Fe1624     O1634   1.958       .  S
Fe1625     O1643   2.085       .  S
Fe1625     O1630   2.091       .  S
Fe1625     O1637   2.099       .  S
Fe1625     O1626   2.087       .  S
Fe1625     O1634   1.996       .  S
O1626      C1633   1.274       .  A
O1627      C1641   1.267       .  A
O1628      C1633   1.269       .  A
O1629      C1632   1.265       .  A
O1630      C1642   1.272       .  A
O1631      C1644   1.269       .  A
C1632      O1637   1.271       .  A
C1632      C1885   1.490       .  S
C1633      C1900   1.465       .  S
O1635      C1638   1.262       .  A
O1636      C1638   1.266       .  A
C1638      C1909   1.483       .  S
O1639      C1644   1.270       .  A
O1640      C1642   1.263       .  A
C1641      O1643   1.274       .  A
C1641      C1873   1.483       .  S
C1642      C1861   1.474       .  S
C1644      C1948   1.477       .  S
Fe1645     O1661   2.078       .  S
Fe1645     O1651   2.029       .  S
Fe1645     O2422   2.054       .  S
Fe1645     O2414   2.056       .  S
Fe1645     O2420   1.968       .  S
Fe1646     O2413   2.072   1_554  S
Fe1646     O2417   2.077   1_554  S
Fe1646     O1657   2.076       .  S
Fe1646     O1662   2.052       .  S
Fe1646     O1656   1.964       .  S
Fe1647     O2429   2.077   1_554  S
Fe1647     O1652   2.080       .  S
Fe1647     O2423   2.091   1_554  S
Fe1647     O1648   2.083       .  S
Fe1647     O1656   1.993       .  S
O1648      C1655   1.274       .  A
O1649     Fe2410   2.072       .  S
O1649      C1663   1.276       .  A
O1650     Fe2409   2.056   1_554  S
O1650      C1655   1.271       .  A
O1651      C1654   1.261       .  A
O1652      C1664   1.269       .  A
O1653     Fe2410   2.078       .  S
O1653      C1666   1.271       .  A
C1654      O1659   1.268       .  A
C1654      C1840   1.477       .  S
C1655      C1852   1.469       .  S
O1656     Fe2409   1.968   1_554  S
O1657      C1660   1.269       .  A
O1658     Fe2409   2.053   1_554  S
O1658      C1660   1.262       .  A
O1659     Fe2411   2.091       .  S
C1660      C1924   1.467       .  S
O1661      C1666   1.270       .  A
O1662      C1664   1.263       .  A
C1663      O1665   1.274       .  A
C1663      C1816   1.487       .  S
C1664      C1828   1.471       .  S
O1665     Fe2411   2.076       .  S
C1666      C1936   1.485       .  S
C1667      C1837   1.561       .  S
C1667      C1957   1.563       .  S
C1668      C1849   1.561       .  S
C1668      C1972   1.570       .  S
C1669      C1789   1.565       .  S
C1669      C1801   1.567       .  S
C1669      C1813   1.567       .  S
C1669      C1876   1.559       .  S
C1670      C1777   1.549       .  S
C1670      C2176   1.575       .  S
Fe1671     O1687   2.059       .  S
Fe1671     O1677   2.054       .  S
Fe1671     O1684   2.073       .  S
Fe1671     O1676   2.058       .  S
Fe1671     O1682   1.970       .  S
Fe1672     O1675   2.046       .  S
Fe1672     O1679   2.065       .  S
Fe1672     O1683   2.057       .  S
Fe1672     O1688   2.060       .  S
Fe1672     O1682   1.964       .  S
Fe1673     O1691   2.102       .  S
Fe1673     O1678   2.071       .  S
Fe1673     O1685   2.084       .  S
Fe1673     O1674   2.106       .  S
Fe1673     O1682   1.991       .  S
O1674      C1681   1.277       .  A
O1675      C1689   1.267       .  A
O1676      C1681   1.272       .  A
O1677      C1680   1.264       .  A
O1678      C1690   1.267       .  A
O1679      C1692   1.270       .  A
C1680      O1685   1.269       .  A
C1680      C1765   1.473       .  S
C1681      C1753   1.491       .  S
O1683      C1686   1.267       .  A
O1684      C1686   1.268       .  A
C1686      C2260   1.487       .  S
O1687      C1692   1.267       .  A
O1688      C1690   1.267       .  A
C1689      O1691   1.277       .  A
C1689      C1792   1.499       .  S
C1690      C1744   1.467       .  S
C1692      C2200   1.478       .  S
C1693      C1756   1.577       .  S
C1693      C2140   1.576       .  S
Fe1694     O1710   2.055       .  S
Fe1694     O1700   2.061       .  S
Fe1694     O2471   2.067       .  S
Fe1694     O2463   2.030       .  S
Fe1694     O2469   1.927       .  S
Fe1695     O2462   2.036   1_554  S
Fe1695     O2466   2.084   1_554  S
Fe1695     O1706   2.060       .  S
Fe1695     O1711   2.061       .  S
Fe1695     O1705   1.913       .  S
Fe1696     O2478   2.107   1_554  S
Fe1696     O1701   2.059       .  S
Fe1696     O2472   2.077   1_554  S
Fe1696     O1697   2.144       .  S
Fe1696     O1705   1.964       .  S
O1697      C1704   1.283       .  A
O1698     Fe2459   2.035       .  S
O1698      C1712   1.267       .  A
O1699     Fe2458   2.031       .  S
O1699      C1704   1.265       .  A
O1700      C1703   1.267       .  A
O1701      C1713   1.272       .  A
O1702     Fe2459   2.085       .  S
O1702      C1715   1.279       .  A
C1703      O1708   1.266       .  A
C1703      C1780   1.475       .  S
C1704      C1732   1.483       .  S
O1705     Fe2458   1.927       .  S
O1706      C1709   1.264       .  A
O1707     Fe2458   2.067       .  S
O1707      C1709   1.264       .  A
O1708     Fe2460   2.075       .  S
C1709      C2248   1.481       .  S
O1710      C1715   1.272       .  A
O1711      C1713   1.273       .  A
C1712      O1714   1.277       .  A
C1712      C1804   1.491       .  S
C1713      C1717   1.459       .  S
O1714     Fe2460   2.109       .  S
C1715      C2212   1.484       .  S
C1716      C1720   1.552       .  S
C1716      C1741   1.559       .  S
C1716      C1825   1.570       .  S
C1716      C1864   1.566       .  S
C1717      C1718   1.395       .  A
C1717      C1722   1.399       .  A
C1718      C1719   1.395       .  A
C1718      H1723   1.084       .  S
C1719      C1720   1.423       .  A
C1719      O1724   1.371       .  S
C1720      C1721   1.419       .  A
C1721      C1722   1.397       .  A
C1721      H1725   1.083       .  S
C1722      O1726   1.372       .  S
O1724      H1728   0.992       .  S
O1726      H1727   0.992       .  S
C1729      C1730   1.413       .  A
C1729      C1734   1.424       .  A
C1730      C1731   1.380       .  A
C1730      H1735   1.084       .  S
C1731      C1732   1.403       .  A
C1731      O1736   1.375       .  S
C1732      C1733   1.409       .  A
C1733      C1734   1.423       .  A
C1733      H1737   1.083       .  S
C1734      O1738   1.370       .  S
O1736      H1740   0.992       .  S
O1738      H1739   0.991       .  S
C1741      C1742   1.414       .  A
C1741      C1746   1.426       .  A
C1742      C1743   1.396       .  A
C1742      H1747   1.080       .  S
C1743      C1744   1.402       .  A
C1743      O1748   1.372       .  S
C1744      C1745   1.396       .  A
C1745      C1746   1.404       .  A
C1745      H1749   1.084       .  S
C1746      O1750   1.369       .  S
O1748      H1752   0.992       .  S
O1750      H1751   0.992       .  S
C1753      C1754   1.407       .  A
C1753      C1758   1.400       .  A
C1754      C1755   1.421       .  A
C1754      H1759   1.083       .  S
C1755      C1756   1.424       .  A
C1755      O1760   1.370       .  S
C1756      C1757   1.422       .  A
C1757      C1758   1.389       .  A
C1757      H1761   1.077       .  S
C1758      O1762   1.375       .  S
O1760      H1764   0.992       .  S
O1762      H1763   0.992       .  S
C1765      C1766   1.401       .  A
C1765      C1770   1.393       .  A
C1766      C1767   1.412       .  A
C1766      H1771   1.083       .  S
C1767      C1768   1.430       .  A
C1767      O1772   1.371       .  S
C1768      C1769   1.420       .  A
C1769      C1770   1.391       .  A
C1769      H1773   1.068       .  S
C1770      O1774   1.371       .  S
O1772      H1776   0.991       .  S
O1774      H1775   0.991       .  S
C1777      C1778   1.416       .  A
C1777      C1782   1.425       .  A
C1778      C1779   1.410       .  A
C1778      H1783   1.081       .  S
C1779      C1780   1.407       .  A
C1779      O1784   1.371       .  S
C1780      C1781   1.396       .  A
C1781      C1782   1.385       .  A
C1781      H1785   1.084       .  S
C1782      O1786   1.373       .  S
O1784      H1788   0.992       .  S
O1786      H1787   0.992       .  S
C1789      C1790   1.413       .  A
C1789      C1794   1.424       .  A
C1790      C1791   1.387       .  A
C1790      H1795   1.083       .  S
C1791      C1792   1.413       .  A
C1791      O1796   1.373       .  S
C1792      C1793   1.409       .  A
C1793      C1794   1.420       .  A
C1793      H1797   1.083       .  S
C1794      O1798   1.373       .  S
O1796      H1800   0.992       .  S
O1798      H1799   0.992       .  S
C1801      C1802   1.419       .  A
C1801      C1806   1.428       .  A
C1802      C1803   1.407       .  A
C1802      H1807   1.083       .  S
C1803      C1804   1.407       .  A
C1803      O1808   1.371       .  S
C1804      C1805   1.402       .  A
C1805      C1806   1.394       .  A
C1805      H1809   1.084       .  S
C1806      O1810   1.373       .  S
O1808      H1812   0.992       .  S
O1810      H1811   0.992       .  S
C1813      C1814   1.422       .  A
C1813      C1818   1.420       .  A
C1814      C1815   1.393       .  A
C1814      H1819   1.080       .  S
C1815      C1816   1.403       .  A
C1815      O1820   1.373       .  S
C1816      C1817   1.405       .  A
C1817      C1818   1.411       .  A
C1817      H1821   1.083       .  S
C1818      O1822   1.373       .  S
O1820      H1824   0.992       .  S
O1822      H1823   0.992       .  S
C1825      C1826   1.420       .  A
C1825      C1830   1.430       .  A
C1826      C1827   1.406       .  A
C1826      H1831   1.083       .  S
C1827      C1828   1.402       .  A
C1827      O1832   1.371       .  S
C1828      C1829   1.393       .  A
C1829      C1830   1.400       .  A
C1829      H1833   1.085       .  S
C1830      O1834   1.373       .  S
O1832      H1836   0.992       .  S
O1834      H1835   0.993       .  S
C1837      C1838   1.420       .  A
C1837      C1842   1.430       .  A
C1838      C1839   1.410       .  A
C1838      H1843   1.081       .  S
C1839      C1840   1.402       .  A
C1839      O1844   1.371       .  S
C1840      C1841   1.394       .  A
C1841      C1842   1.393       .  A
C1841      H1845   1.085       .  S
C1842      O1846   1.372       .  S
O1844      H1848   0.992       .  S
O1846      H1847   0.992       .  S
C1849      C1850   1.413       .  A
C1849      C1854   1.424       .  A
C1850      C1851   1.396       .  A
C1850      H1855   1.080       .  S
C1851      C1852   1.403       .  A
C1851      O1856   1.372       .  S
C1852      C1853   1.398       .  A
C1853      C1854   1.403       .  A
C1853      H1857   1.084       .  S
O1856      H1860   0.992       .  S
O1858      H1859   0.992       .  S
C1861      C1862   1.395       .  A
C1861      C1866   1.404       .  A
C1862      C1863   1.405       .  A
C1862      H1867   1.084       .  S
C1863      C1864   1.429       .  A
C1863      O1868   1.372       .  S
C1864      C1865   1.411       .  A
C1865      C1866   1.396       .  A
C1865      H1869   1.080       .  S
C1866      O1870   1.369       .  S
O1868      H1872   0.992       .  S
O1870      H1871   0.990       .  S
C1873      C1874   1.402       .  A
C1873      C1878   1.409       .  A
C1874      C1875   1.386       .  A
C1874      H1879   1.083       .  S
C1875      C1876   1.418       .  A
C1875      O1880   1.373       .  S
C1876      C1877   1.417       .  A
C1877      C1878   1.405       .  A
C1877      H1881   1.080       .  S
C1878      O1882   1.371       .  S
O1880      H1884   0.992       .  S
O1882      H1883   0.992       .  S
C1885      C1886   1.397       .  A
C1885      C1890   1.411       .  A
C1886      C1887   1.386       .  A
C1886      H1891   1.085       .  S
C1887      C1888   1.424       .  A
C1887      O1892   1.373       .  S
C1888      C1889   1.419       .  A
C1889      C1890   1.419       .  A
C1889      H1893   1.081       .  S
C1890      O1894   1.371       .  S
O1892      H1896   0.992       .  S
O1894      H1895   0.991       .  S
C1897      C1898   1.411       .  A
C1897      C1902   1.424       .  A
C1898      C1899   1.393       .  A
C1898      H1903   1.080       .  S
C1899      C1900   1.402       .  A
C1899      O1904   1.373       .  S
C1900      C1901   1.398       .  A
C1901      C1902   1.404       .  A
C1901      H1905   1.084       .  S
C1902      O1906   1.374   1_565  S
O1904      H1908   0.992       .  S
O1906      H1907   0.992       .  S
C1909      C1910   1.402       .  A
C1909      C1914   1.407       .  A
C1910      C1911   1.400       .  A
C1910      H1915   1.083       .  S
C1911      C1912   1.425       .  A
C1911      O1916   1.374       .  S
C1912      C1913   1.411       .  A
C1913      C1914   1.392       .  A
C1913      H1917   1.075       .  S
C1914      O1918   1.368       .  S
O1916      H1920   0.992       .  S
O1918      H1919   0.992       .  S
C1921      C1922   1.419       .  A
C1921      C1926   1.421       .  A
C1922      C1923   1.390       .  A
C1922      H1927   1.081       .  S
C1923      C1924   1.398       .  A
C1923      O1928   1.373       .  S
C1924      C1925   1.402       .  A
C1925      C1926   1.412       .  A
C1925      H1929   1.083       .  S
C1926      O1930   1.375       .  S
O1928      H1932   0.992       .  S
O1930      H1931   0.992       .  S
C1933      C1934   1.420       .  A
C1933      C1938   1.433       .  A
C1934      C1935   1.407       .  A
C1934      H1939   1.083       .  S
C1935      C1936   1.404       .  A
C1935      O1940   1.371       .  S
C1936      C1937   1.397       .  A
C1937      C1938   1.403       .  A
C1937      H1941   1.084       .  S
C1938      O1942   1.372       .  S
O1940      H1944   0.992       .  S
O1942      H1943   0.992       .  S
C1945      C1946   1.421       .  A
C1945      C1950   1.426       .  A
C1946      C1947   1.399       .  A
C1946      H1951   1.079       .  S
C1947      C1948   1.402       .  A
C1947      O1952   1.372       .  S
C1948      C1949   1.398       .  A
C1949      C1950   1.407       .  A
C1949      H1953   1.084       .  S
C1950      O1954   1.372       .  S
O1952      H1956   0.992       .  S
O1954      H1955   0.992       .  S
C1957      C1958   1.416       .  A
C1957      C1962   1.420       .  A
C1958      C1959   1.392       .  A
C1959      C1960   1.404       .  A
C1959      O1964   1.371       .  S
C1960      C1961   1.405       .  A
C1961      C1962   1.404       .  A
C1961      H1965   1.083       .  S
C1962      O1966   1.373       .  S
O1964      H1968   0.992       .  S
O1966      H1967   0.991       .  S
C1969      C1970   1.398       .  A
C1969      C1974   1.403       .  A
C1970      C1971   1.409       .  A
C1970      H1975   1.084       .  S
C1971      C1972   1.427       .  A
C1972      C1973   1.417       .  A
C1973      C1974   1.396       .  A
C1973      H1977   1.079       .  S
C1974      O1978   1.373       .  S
O1976      H1980   0.992       .  S
O1978      H1979   0.992       .  S
C1981      C1982   1.415       .  A
C1981      C1986   1.428       .  A
C1982      C1983   1.385       .  A
C1983      C1984   1.407       .  A
C1983      O1988   1.373       .  S
C1984      C1985   1.404       .  A
C1985      C1986   1.414       .  A
C1985      H1989   1.083       .  S
C1986      O1990   1.370   1_455  S
O1988      H1992   0.992       .  S
O1990      H1991   0.992   1_655  S
C1993      C1994   1.421       .  A
C1993      C1998   1.425       .  A
C1994      C1995   1.383       .  A
C1994      H1999   1.074       .  S
C1995      C1996   1.396       .  A
C1995      O2000   1.374       .  S
C1996      C1997   1.405       .  A
C1997      C1998   1.418       .  A
C1997      H2001   1.083       .  S
C1998      O2002   1.372       .  S
O2000      H2004   0.992       .  S
O2002      H2003   0.992       .  S
C2005      C2006   1.404       .  A
C2005      C2010   1.408       .  A
C2006      C2007   1.413       .  A
C2006      H2011   1.083       .  S
C2007      C2008   1.427       .  A
C2007      O2012   1.371       .  S
C2008      C2009   1.415       .  A
C2009      C2010   1.407       .  A
C2009      H2013   1.079       .  S
C2010      O2014   1.372       .  S
O2012      H2016   0.991       .  S
O2014      H2015   0.992       .  S
C2017      C2018   1.397       .  A
C2017      C2022   1.403       .  A
C2018      C2019   1.408       .  A
C2018      H2023   1.084       .  S
C2019      C2020   1.428       .  A
C2019      O2024   1.373       .  S
C2020      C2021   1.415       .  A
C2021      C2022   1.395       .  A
C2022      O2026   1.373       .  S
O2024      H2028   0.992       .  S
C2029      C2030   1.406       .  A
C2029      C2034   1.408       .  A
C2030      C2031   1.396       .  A
C2030      H2035   1.083       .  S
C2031      C2032   1.418       .  A
C2031      O2036   1.372       .  S
C2032      C2033   1.416   1_565  A
C2033      C2034   1.403   1_545  A
C2033      H2037   1.082       .  S
C2034      O2038   1.371   1_565  S
O2036      H2040   0.992       .  S
O2038      H2039   0.992       .  S
C2041      C2042   1.406       .  A
C2041      C2046   1.406       .  A
C2042      C2043   1.415       .  A
C2042      H2047   1.083       .  S
C2043      C2044   1.425       .  A
C2043      O2048   1.372   1_455  S
C2044      C2045   1.418       .  A
C2045      C2046   1.390       .  A
C2046      O2050   1.373       .  S
O2048      H2052   0.992       .  S
O2050      H2051   0.992       .  S
C2053      C2054   1.406       .  A
C2053      C2058   1.407       .  A
C2054      C2055   1.416       .  A
C2054      H2059   1.083       .  S
C2055      C2056   1.424       .  A
C2055      O2060   1.373       .  S
C2056      C2057   1.415       .  A
C2057      C2058   1.404       .  A
C2057      H2061   1.080       .  S
C2058      O2062   1.371       .  S
O2060      H2064   0.992       .  S
O2062      H2063   0.992       .  S
C2065      C2066   1.417       .  A
C2065      C2070   1.422       .  A
C2066      C2067   1.421       .  A
C2066      H2071   1.081       .  S
C2067      C2068   1.414       .  A
C2067      O2072   1.370       .  S
C2068      C2069   1.400       .  A
C2069      C2070   1.376       .  A
C2069      H2073   1.084       .  S
C2070      O2074   1.375       .  S
O2072      H2076   0.992       .  S
O2074      H2075   0.992       .  S
C2077      C2078   1.402       .  A
C2077      C2082   1.401       .  A
C2078      C2079   1.412   1_455  A
C2078      H2083   1.083       .  S
C2079      C2080   1.425   1_655  A
C2079      O2084   1.373       .  S
C2080      C2081   1.415       .  A
C2081      C2082   1.388       .  A
C2081      H2085   1.079       .  S
C2082      O2086   1.371       .  S
O2084      H2088   0.992       .  S
O2086      H2087   0.992       .  S
C2089      C2090   1.405       .  A
C2089      C2094   1.409       .  A
C2090      C2091   1.388   1_565  A
C2090      H2095   1.083       .  S
C2091      C2092   1.418   1_545  A
C2091      O2096   1.373       .  S
C2092      C2093   1.420       .  A
C2093      C2094   1.412       .  A
C2093      H2097   1.079   1_455  S
C2094      O2098   1.371       .  S
O2096      H2100   0.992       .  S
O2098      H2099   0.992       .  S
C2101      C2102   1.397       .  A
C2101      C2106   1.412       .  A
C2102      C2103   1.390       .  A
C2102      H2107   1.084       .  S
C2103      C2104   1.431       .  A
C2103      O2108   1.375       .  S
C2104      C2105   1.413       .  A
C2105      C2106   1.408       .  A
C2105      H2109   1.083   1_655  S
C2106      O2110   1.371       .  S
O2108      H2112   0.993       .  S
O2110      H2111   0.992       .  S
C2113      C2114   1.404       .  A
C2113      C2118   1.413       .  A
C2114      C2115   1.409       .  A
C2114      H2119   1.083       .  S
C2115      C2116   1.425       .  A
C2115      O2120   1.371       .  S
C2116      C2117   1.411       .  A
C2117      C2118   1.388       .  A
C2117      H2121   1.084       .  S
C2118      O2122   1.372       .  S
O2120      H2124   0.992   1_655  S
O2122      H2123   0.992       .  S
C2125      C2126   1.420       .  A
C2125      C2130   1.436       .  A
C2126      C2127   1.406       .  A
C2126      H2131   1.084       .  S
C2127      C2128   1.403       .  A
C2127      O2132   1.371       .  S
C2128      C2129   1.388       .  A
C2129      C2130   1.391       .  A
C2129      H2133   1.085       .  S
C2130      O2134   1.370       .  S
O2132      H2136   0.992       .  S
O2134      H2135   0.992       .  S
C2137      C2138   1.391       .  A
C2137      C2142   1.406       .  A
C2138      C2139   1.400       .  A
C2138      H2143   1.084       .  S
C2139      C2140   1.434       .  A
C2139      O2144   1.375       .  S
C2140      C2141   1.414       .  A
C2141      C2142   1.410       .  A
C2141      H2145   1.083       .  S
C2142      O2146   1.371       .  S
O2144      H2148   0.993       .  S
O2146      H2147   0.992       .  S
C2149      C2150   1.400       .  A
C2149      C2154   1.411       .  A
C2150      C2151   1.382       .  A
C2150      H2155   1.083       .  S
C2151      C2152   1.421       .  A
C2151      O2156   1.373   1_565  S
C2152      C2153   1.416       .  A
C2153      C2154   1.410       .  A
C2153      H2157   1.079       .  S
C2154      O2158   1.371       .  S
O2156      H2160   0.992       .  S
O2158      H2159   0.992       .  S
C2161      C2162   1.400       .  A
C2161      C2166   1.409       .  A
C2162      C2163   1.393       .  A
C2162      H2167   1.083       .  S
C2163      C2164   1.428       .  A
C2164      C2165   1.416       .  A
C2165      C2166   1.407       .  A
C2165      H2169   1.083   1_655  S
C2166      O2170   1.371       .  S
O2168      H2172   0.993       .  S
O2170      H2171   0.992       .  S
C2173      C2174   1.397       .  A
C2173      C2178   1.401       .  A
C2174      C2175   1.401       .  A
C2174      H2179   1.084       .  S
C2175      C2176   1.429       .  A
C2175      O2180   1.373       .  S
C2176      C2177   1.418       .  A
C2177      C2178   1.396       .  A
C2177      H2181   1.074       .  S
C2178      O2182   1.373       .  S
O2180      H2184   0.992       .  S
O2182      H2183   0.992       .  S
C2185      C2186   1.399       .  A
C2185      C2190   1.409       .  A
C2186      C2187   1.397       .  A
C2186      H2191   1.084       .  S
C2187      C2188   1.426       .  A
C2187      O2192   1.372       .  S
C2188      C2189   1.415       .  A
C2189      C2190   1.406       .  A
C2189      H2193   1.077       .  S
C2190      O2194   1.372       .  S
O2192      H2196   0.992       .  S
O2194      H2195   0.992       .  S
C2197      C2198   1.415       .  A
C2197      C2202   1.425       .  A
C2198      C2199   1.403       .  A
C2198      H2203   1.079       .  S
C2199      C2200   1.407       .  A
C2199      O2204   1.372       .  S
C2200      C2201   1.397       .  A
C2201      C2202   1.395       .  A
C2201      H2205   1.084       .  S
C2202      O2206   1.371       .  S
O2204      H2208   0.992       .  S
O2206      H2207   0.992       .  S
C2209      C2210   1.415       .  A
C2209      C2214   1.423       .  A
C2210      C2211   1.385       .  A
C2210      H2215   1.083       .  S
C2211      C2212   1.404       .  A
C2211      O2216   1.373       .  S
C2212      C2213   1.407       .  A
C2213      C2214   1.412       .  A
C2213      H2217   1.084       .  S
C2214      O2218   1.371       .  S
O2216      H2220   0.992       .  S
O2218      H2219   0.992       .  S
C2221      C2222   1.418       .  A
C2221      C2226   1.419       .  A
C2222      C2223   1.389       .  A
C2222      H2227   1.082       .  S
C2223      C2224   1.398       .  A
C2223      O2228   1.374       .  S
C2224      C2225   1.401       .  A
C2225      C2226   1.407       .  A
C2225      H2229   1.083       .  S
C2226      O2230   1.368       .  S
O2228      H2232   0.992       .  S
O2230      H2231   0.992       .  S
C2233      C2234   1.413       .  A
C2233      C2238   1.428       .  A
C2234      C2235   1.402       .  A
C2234      H2239   1.083       .  S
C2235      C2236   1.403       .  A
C2235      O2240   1.372       .  S
C2236      C2237   1.394       .  A
C2237      C2238   1.398       .  A
C2237      H2241   1.084       .  S
C2238      O2242   1.374       .  S
O2240      H2244   0.992       .  S
O2242      H2243   0.993       .  S
C2245      C2246   1.420       .  A
C2245      C2250   1.423       .  A
C2246      C2247   1.396       .  A
C2246      H2251   1.078       .  S
C2247      C2248   1.403       .  A
C2247      O2252   1.372       .  S
C2248      C2249   1.403       .  A
C2249      C2250   1.401       .  A
C2249      H2253   1.084       .  S
C2250      O2254   1.372       .  S
O2252      H2256   0.992       .  S
O2254      H2255   0.992       .  S
C2257      C2258   1.418       .  A
C2257      C2262   1.422       .  A
C2258      C2259   1.402       .  A
C2258      H2263   1.080       .  S
C2259      C2260   1.407       .  A
C2259      O2264   1.372       .  S
C2260      C2261   1.403       .  A
C2261      C2262   1.399       .  A
C2261      H2265   1.084       .  S
C2262      O2266   1.374       .  S
O2264      H2268   0.992       .  S
O2266      H2267   0.992       .  S
C2269      C2270   1.399       .  A
C2269      C2274   1.403       .  A
C2270      C2271   1.408       .  A
C2270      H2275   1.084       .  S
C2271      C2272   1.426       .  A
C2271      O2276   1.373       .  S
C2272      C2273   1.415       .  A
C2273      C2274   1.389       .  A
C2273      H2277   1.075       .  S
C2274      O2278   1.373       .  S
O2276      H2280   0.992       .  S
O2278      H2279   0.992       .  S
C2281      C2282   1.409       .  A
C2281      C2286   1.429       .  A
C2282      C2283   1.383       .  A
C2282      H2287   1.084       .  S
C2283      C2284   1.405       .  A
C2283      O2288   1.371       .  S
C2284      C2285   1.403       .  A
C2285      C2286   1.414       .  A
C2285      H2289   1.083       .  S
C2286      O2290   1.370       .  S
O2288      H2292   0.992       .  S
O2290      H2291   0.992       .  S
C2293      C3009   1.575       .  S
C2293      C3021   1.568       .  S
C2293      C3036   1.561       .  S
C2293      C3045   1.558       .  S
C2294      C2961   1.570       .  S
C2294      C2973   1.557       .  S
C2294      C2985   1.554       .  S
C2294      C2997   1.559       .  S
Fe2295     O2311   2.073       .  S
Fe2295     O2301   2.024       .  S
Fe2295     O2308   2.054       .  S
Fe2295     O2300   2.054       .  S
Fe2295     O2306   1.946       .  S
Fe2296     O2299   2.048       .  S
Fe2296     O2303   2.061       .  S
Fe2296     O2307   2.077       .  S
Fe2296     O2312   2.032       .  S
Fe2296     O2306   1.931       .  S
Fe2297     O2315   2.074       .  S
Fe2297     O2302   2.105       .  S
Fe2297     O2309   2.113       .  S
Fe2297     O2298   2.070       .  S
Fe2297     O2306   1.970       .  S
O2298      C2305   1.268       .  A
O2299      C2313   1.270       .  A
O2300      C2305   1.268       .  A
O2301      C2304   1.265       .  A
O2302      C2314   1.276       .  A
O2303      C2316   1.266       .  A
C2304      O2309   1.277       .  A
C2304      C3033   1.474       .  S
C2305      C2988   1.464       .  S
O2307      C2310   1.272       .  A
O2308      C2310   1.267       .  A
C2310      C2937   1.473       .  S
O2311      C2316   1.269       .  A
O2312      C2314   1.267       .  A
C2313      O2315   1.271       .  A
C2313      C2913   1.486       .  S
C2314      C2925   1.489       .  S
C2316      C2949   1.484       .  S
Fe2317     O2333   2.077       .  S
Fe2317     O2323   2.065       .  S
Fe2318     O2329   2.063   1_554  S
Fe2318     O2334   2.061   1_554  S
Fe2318     O2328   1.930   1_554  S
Fe2319     O2324   2.081       .  S
Fe2319     O2320   2.094       .  S
Fe2319     O2328   1.967       .  S
O2320      C2327   1.271       .  A
O2321      C2335   1.265       .  A
O2322      C2327   1.263       .  A
O2323      C2326   1.271       .  A
O2324      C2336   1.279       .  A
O2325      C2338   1.271       .  A
C2326      O2331   1.275       .  A
C2326      C3048   1.481       .  S
C2327      C3000   1.464       .  S
O2329      C2332   1.267       .  A
O2330      C2332   1.264       .  A
C2332      C2892   1.463       .  S
O2333      C2338   1.271       .  A
O2334      C2336   1.273       .  A
C2335      O2337   1.268       .  A
C2335      C2865   1.487       .  S
C2336      C2877   1.490       .  S
C2338      C2901   1.476       .  S
C2339      C2856   1.568   1_645  S
C2339      C2928   1.565   1_545  S
Fe2340     O2356   2.090       .  S
Fe2340     O2346   2.035       .  S
Fe2341     O2352   2.075       .  S
Fe2341     O2357   2.035       .  S
Fe2341     O2351   1.952       .  S
Fe2342     O2347   2.103       .  S
Fe2342     O2343   2.125       .  S
Fe2342     O2351   1.986       .  S
O2343      C2350   1.281       .  A
O2344      C2358   1.267       .  A
O2345      C2350   1.273       .  A
O2346      C2349   1.264       .  A
O2347      C2359   1.279       .  A
O2348      C2361   1.269       .  A
C2349      O2354   1.272       .  A
C2349      C2832   1.496       .  S
C2350      C2817   1.495       .  S
O2352      C2355   1.269       .  A
O2353      C2355   1.262       .  A
C2355      C2793   1.486       .  S
O2356      C2361   1.276       .  A
O2357      C2359   1.269       .  A
C2358      O2360   1.274       .  A
C2358      C2805   1.495       .  S
C2359      C2853   1.493       .  S
C2361      C2781   1.474       .  S
Fe2362     O2378   2.078       .  S
Fe2362     O2368   2.052       .  S
Fe2362     O2375   2.081       .  S
Fe2362     O2367   2.069       .  S
Fe2362     O2373   1.951       .  S
Fe2363     O2366   2.032       .  S
Fe2363     O2370   2.066       .  S
Fe2363     O2374   2.048       .  S
Fe2363     O2379   2.047       .  S
Fe2363     O2373   1.946       .  S
Fe2364     O2382   2.108       .  S
Fe2364     O2369   2.082       .  S
Fe2364     O2376   2.084       .  S
Fe2364     O2365   2.126       .  S
Fe2364     O2373   1.979       .  S
O2365      C2372   1.283       .  A
O2366      C2380   1.267       .  A
O2367      C2372   1.274       .  A
O2368      C2371   1.268       .  A
O2369      C2381   1.271       .  A
O2370      C2383   1.268       .  A
C2371      O2376   1.268       .  A
C2371      C2760   1.479       .  S
C2372      C2769   1.495       .  S
O2374      C2377   1.266       .  A
O2375      C2377   1.270       .  A
C2377      C2724   1.483       .  S
O2378      C2383   1.271       .  A
O2379      C2381   1.266       .  A
C2380      O2382   1.279       .  A
C2380      C2748   1.487       .  S
C2381      C2841   1.477       .  S
C2383      C2733   1.475       .  S
C2384      C2697   1.579       .  S
C2384      C2709   1.575       .  S
C2384      C2772   1.580       .  S
C2384      C2820   1.572       .  S
C2385      C2676   1.569       .  S
C2385      C2685   1.570       .  S
C2385      C2757   1.570       .  S
C2385      C2829   1.559       .  S
C2386      C2808   1.577   1_655  S
C2386      C2916   1.556       .  S
Fe2387     O2403   2.069       .  S
Fe2387     O2393   2.038       .  S
Fe2387     O2400   2.069       .  S
Fe2387     O2392   2.041       .  S
Fe2387     O2398   1.955       .  S
Fe2388     O2391   2.031       .  S
Fe2388     O2395   2.072       .  S
Fe2388     O2399   2.046       .  S
Fe2388     O2404   2.035       .  S
Fe2388     O2398   1.958       .  S
Fe2389     O2407   2.085       .  S
Fe2389     O2394   2.091       .  S
Fe2389     O2401   2.100       .  S
Fe2389     O2390   2.087       .  S
Fe2389     O2398   1.996       .  S
O2390      C2397   1.274       .  A
O2391      C2405   1.268       .  A
O2392      C2397   1.269       .  A
O2393      C2396   1.265       .  A
O2394      C2406   1.272       .  A
O2395      C2408   1.269       .  A
C2396      O2401   1.271       .  A
C2396      C2649   1.492       .  S
C2397      C2664   1.465       .  S
O2399      C2402   1.263       .  A
O2400      C2402   1.266       .  A
C2402      C2673   1.483       .  S
O2403      C2408   1.270       .  A
O2404      C2406   1.262       .  A
C2405      O2407   1.274       .  A
C2405      C2637   1.484       .  S
C2406      C2625   1.474       .  S
C2408      C2712   1.477       .  S
Fe2409     O2425   2.078       .  S
Fe2409     O2415   2.029       .  S
Fe2410     O2421   2.076       .  S
Fe2410     O2426   2.053       .  S
Fe2410     O2420   1.964       .  S
Fe2411     O2416   2.080       .  S
Fe2411     O2412   2.082       .  S
Fe2411     O2420   1.993       .  S
O2412      C2419   1.273       .  A
O2413      C2427   1.275       .  A
O2414      C2419   1.271       .  A
O2415      C2418   1.261       .  A
O2416      C2428   1.269       .  A
O2417      C2430   1.271       .  A
C2418      O2423   1.268       .  A
C2418      C2604   1.476       .  S
C2419      C2616   1.468       .  S
O2421      C2424   1.269       .  A
O2422      C2424   1.263       .  A
C2424      C2688   1.468       .  S
O2425      C2430   1.270       .  A
O2426      C2428   1.264       .  A
C2427      O2429   1.274       .  A
C2427      C2580   1.487       .  S
C2428      C2592   1.472       .  S
C2430      C2700   1.484       .  S
C2431      C2601   1.560       .  S
C2431      C2721   1.563       .  S
C2432      C2613   1.561       .  S
C2432      C2736   1.569       .  S
C2433      C2553   1.565       .  S
C2433      C2565   1.567       .  S
C2433      C2577   1.568       .  S
C2433      C2640   1.560       .  S
C2434      C2541   1.549       .  S
C2434      C2940   1.576       .  S
Fe2435     O2451   2.060       .  S
Fe2435     O2441   2.054       .  S
Fe2435     O2448   2.072       .  S
Fe2435     O2440   2.059       .  S
Fe2435     O2446   1.970       .  S
Fe2436     O2439   2.047       .  S
Fe2436     O2443   2.066       .  S
Fe2436     O2447   2.057       .  S
Fe2436     O2452   2.061       .  S
Fe2436     O2446   1.964       .  S
Fe2437     O2455   2.102       .  S
Fe2437     O2442   2.070       .  S
Fe2437     O2449   2.083       .  S
Fe2437     O2438   2.107       .  S
Fe2437     O2446   1.991       .  S
O2438      C2445   1.277       .  A
O2439      C2453   1.268       .  A
O2440      C2445   1.272       .  A
O2441      C2444   1.264       .  A
O2442      C2454   1.267       .  A
O2443      C2456   1.270       .  A
C2444      O2449   1.269       .  A
C2444      C2529   1.472       .  S
C2445      C2517   1.493       .  S
O2447      C2450   1.267       .  A
O2448      C2450   1.268       .  A
C2450      C3024   1.486       .  S
O2451      C2456   1.267       .  A
O2452      C2454   1.267       .  A
C2453      O2455   1.277       .  A
C2453      C2556   1.499       .  S
C2454      C2508   1.467       .  S
C2456      C2964   1.479       .  S
C2457      C2520   1.578       .  S
C2457      C2904   1.577       .  S
Fe2458     O2474   2.058   1_554  S
Fe2458     O2464   2.060   1_554  S
Fe2459     O2470   2.059       .  S
Fe2459     O2475   2.062       .  S
Fe2459     O2469   1.914       .  S
Fe2460     O2465   2.058       .  S
Fe2460     O2461   2.145       .  S
Fe2460     O2469   1.964       .  S
O2461      C2468   1.284       .  A
O2462      C2476   1.267       .  A
O2463      C2468   1.264       .  A
O2464      C2467   1.266       .  A
O2465      C2477   1.272       .  A
O2466      C2479   1.279       .  A
C2467      O2472   1.266       .  A
C2467      C2544   1.475       .  S
C2468      C2496   1.484       .  S
O2470      C2473   1.264       .  A
O2471      C2473   1.264       .  A
C2473      C3012   1.481       .  S
O2474      C2479   1.273       .  A
O2475      C2477   1.273       .  A
C2476      O2478   1.276       .  A
C2476      C2568   1.491       .  S
C2477      C2481   1.459       .  S
C2479      C2976   1.485       .  S
C2480      C2484   1.552       .  S
C2480      C2505   1.559       .  S
C2480      C2589   1.571       .  S
C2480      C2628   1.566       .  S
C2481      C2482   1.395       .  A
C2481      C2486   1.399       .  A
C2482      C2483   1.395       .  A
C2482      H2487   1.084       .  S
C2483      C2484   1.423       .  A
C2483      O2488   1.371       .  S
C2484      C2485   1.419       .  A
C2485      C2486   1.397       .  A
C2485      H2489   1.083       .  S
C2486      O2490   1.372       .  S
O2488      H2492   0.992       .  S
O2490      H2491   0.992       .  S
C2493      C2494   1.413       .  A
C2493      C2498   1.424       .  A
C2494      C2495   1.380       .  A
C2494      H2499   1.084       .  S
C2495      C2496   1.403       .  A
C2495      O2500   1.375       .  S
C2496      C2497   1.409       .  A
C2497      C2498   1.424       .  A
C2497      H2501   1.083       .  S
C2498      O2502   1.370       .  S
O2500      H2504   0.992       .  S
O2502      H2503   0.992       .  S
C2505      C2506   1.414       .  A
C2505      C2510   1.426       .  A
C2506      C2507   1.396       .  A
C2506      H2511   1.080       .  S
C2507      C2508   1.402       .  A
C2507      O2512   1.372       .  S
C2508      C2509   1.396       .  A
C2509      C2510   1.404       .  A
C2509      H2513   1.084       .  S
C2510      O2514   1.369       .  S
O2512      H2516   0.992       .  S
O2514      H2515   0.992       .  S
C2517      C2518   1.408       .  A
C2517      C2522   1.401       .  A
C2518      C2519   1.421       .  A
C2518      H2523   1.083       .  S
C2519      C2520   1.424       .  A
C2519      O2524   1.370       .  S
C2520      C2521   1.422       .  A
C2521      C2522   1.389       .  A
C2521      H2525   1.077       .  S
C2522      O2526   1.374       .  S
O2524      H2528   0.992       .  S
O2526      H2527   0.992       .  S
C2529      C2530   1.401       .  A
C2529      C2534   1.393       .  A
C2530      C2531   1.413       .  A
C2530      H2535   1.083       .  S
C2531      C2532   1.429       .  A
C2531      O2536   1.371       .  S
C2532      C2533   1.420       .  A
C2533      C2534   1.390       .  A
C2533      H2537   1.069       .  S
C2534      O2538   1.371       .  S
O2536      H2540   0.991       .  S
O2538      H2539   0.991       .  S
C2541      C2542   1.416       .  A
C2541      C2546   1.424       .  A
C2542      C2543   1.411       .  A
C2542      H2547   1.080       .  S
C2543      C2544   1.408       .  A
C2543      O2548   1.370       .  S
C2544      C2545   1.396       .  A
C2545      C2546   1.383       .  A
C2545      H2549   1.084       .  S
C2546      O2550   1.373       .  S
O2548      H2552   0.992       .  S
O2550      H2551   0.992       .  S
C2553      C2554   1.413       .  A
C2553      C2558   1.424       .  A
C2554      C2555   1.387       .  A
C2554      H2559   1.083       .  S
C2555      C2556   1.413       .  A
C2555      O2560   1.373       .  S
C2556      C2557   1.409       .  A
C2557      C2558   1.420       .  A
C2557      H2561   1.083       .  S
C2558      O2562   1.373       .  S
O2560      H2564   0.992       .  S
O2562      H2563   0.992       .  S
C2565      C2566   1.419       .  A
C2565      C2570   1.428       .  A
C2566      C2567   1.407       .  A
C2566      H2571   1.083       .  S
C2567      C2568   1.407       .  A
C2567      O2572   1.371       .  S
C2568      C2569   1.401       .  A
C2569      C2570   1.394       .  A
C2569      H2573   1.084       .  S
C2570      O2574   1.373       .  S
O2572      H2576   0.992       .  S
O2574      H2575   0.992       .  S
C2577      C2578   1.422       .  A
C2577      C2582   1.420       .  A
C2578      C2579   1.393       .  A
C2578      H2583   1.080       .  S
C2579      C2580   1.403       .  A
C2579      O2584   1.373       .  S
C2580      C2581   1.405       .  A
C2581      C2582   1.412       .  A
C2581      H2585   1.083       .  S
C2582      O2586   1.373       .  S
O2584      H2588   0.992       .  S
O2586      H2587   0.992       .  S
C2589      C2590   1.420       .  A
C2589      C2594   1.430       .  A
C2590      C2591   1.406       .  A
C2590      H2595   1.083       .  S
C2591      C2592   1.401       .  A
C2591      O2596   1.371       .  S
C2592      C2593   1.393       .  A
C2593      C2594   1.400       .  A
C2593      H2597   1.085       .  S
C2594      O2598   1.373       .  S
O2596      H2600   0.992       .  S
O2598      H2599   0.993       .  S
C2601      C2602   1.420       .  A
C2601      C2606   1.429       .  A
C2602      C2603   1.409       .  A
C2602      H2607   1.081       .  S
C2603      C2604   1.402       .  A
C2603      O2608   1.371       .  S
C2604      C2605   1.395       .  A
C2605      C2606   1.393       .  A
C2605      H2609   1.085       .  S
C2606      O2610   1.372       .  S
O2608      H2612   0.992       .  S
O2610      H2611   0.992       .  S
C2613      C2614   1.413       .  A
C2613      C2618   1.424       .  A
C2614      C2615   1.396       .  A
C2614      H2619   1.080       .  S
C2615      C2616   1.403       .  A
C2615      O2620   1.372       .  S
C2616      C2617   1.397       .  A
C2617      C2618   1.403       .  A
C2617      H2621   1.084       .  S
O2620      H2624   0.992       .  S
O2622      H2623   0.992       .  S
C2625      C2626   1.395       .  A
C2625      C2630   1.404       .  A
C2626      C2627   1.405       .  A
C2626      H2631   1.084       .  S
C2627      C2628   1.429       .  A
C2627      O2632   1.372       .  S
C2628      C2629   1.411       .  A
C2629      C2630   1.396       .  A
C2629      H2633   1.079       .  S
C2630      O2634   1.369       .  S
O2632      H2636   0.992       .  S
O2634      H2635   0.990       .  S
C2637      C2638   1.402       .  A
C2637      C2642   1.409       .  A
C2638      C2639   1.386       .  A
C2638      H2643   1.083       .  S
C2639      C2640   1.419       .  A
C2639      O2644   1.373       .  S
C2640      C2641   1.417       .  A
C2641      C2642   1.406       .  A
C2641      H2645   1.080       .  S
C2642      O2646   1.371       .  S
O2644      H2648   0.992       .  S
O2646      H2647   0.992       .  S
C2649      C2650   1.397       .  A
C2649      C2654   1.411       .  A
C2650      C2651   1.386       .  A
C2650      H2655   1.085       .  S
C2651      C2652   1.424       .  A
C2651      O2656   1.373       .  S
C2652      C2653   1.419       .  A
C2653      C2654   1.420       .  A
C2653      H2657   1.081       .  S
C2654      O2658   1.371       .  S
O2656      H2660   0.992       .  S
O2658      H2659   0.991       .  S
C2661      C2662   1.411       .  A
C2661      C2666   1.424       .  A
C2662      C2663   1.393       .  A
C2662      H2667   1.080       .  S
C2663      C2664   1.402       .  A
C2663      O2668   1.373       .  S
C2664      C2665   1.397       .  A
C2665      C2666   1.404       .  A
C2665      H2669   1.084       .  S
C2666      O2670   1.374   1_565  S
O2668      H2672   0.992       .  S
O2670      H2671   0.992       .  S
C2673      C2674   1.403       .  A
C2673      C2678   1.407       .  A
C2674      C2675   1.401       .  A
C2674      H2679   1.083       .  S
C2675      C2676   1.425       .  A
C2675      O2680   1.374       .  S
C2676      C2677   1.411       .  A
C2677      C2678   1.392       .  A
C2677      H2681   1.076       .  S
C2678      O2682   1.368       .  S
O2680      H2684   0.992       .  S
O2682      H2683   0.992       .  S
C2685      C2686   1.419       .  A
C2685      C2690   1.421       .  A
C2686      C2687   1.391       .  A
C2686      H2691   1.081       .  S
C2687      C2688   1.398       .  A
C2687      O2692   1.373       .  S
C2688      C2689   1.402       .  A
C2689      C2690   1.412       .  A
C2689      H2693   1.083       .  S
C2690      O2694   1.375       .  S
O2692      H2696   0.992       .  S
O2694      H2695   0.992       .  S
C2697      C2698   1.420       .  A
C2697      C2702   1.433       .  A
C2698      C2699   1.407       .  A
C2698      H2703   1.083       .  S
C2699      C2700   1.404       .  A
C2699      O2704   1.371       .  S
C2700      C2701   1.396       .  A
C2701      C2702   1.403       .  A
C2701      H2705   1.084       .  S
C2702      O2706   1.372       .  S
O2704      H2708   0.992       .  S
O2706      H2707   0.992       .  S
C2709      C2710   1.421       .  A
C2709      C2714   1.426       .  A
C2710      C2711   1.398       .  A
C2710      H2715   1.079       .  S
C2711      C2712   1.402       .  A
C2711      O2716   1.372       .  S
C2712      C2713   1.397       .  A
C2713      C2714   1.407       .  A
C2713      H2717   1.084       .  S
C2714      O2718   1.372       .  S
O2716      H2720   0.992       .  S
O2718      H2719   0.992       .  S
C2721      C2722   1.416       .  A
C2721      C2726   1.420       .  A
C2722      C2723   1.392       .  A
C2723      C2724   1.404       .  A
C2723      O2728   1.371       .  S
C2724      C2725   1.405       .  A
C2725      C2726   1.404       .  A
C2725      H2729   1.083       .  S
C2726      O2730   1.373       .  S
O2728      H2732   0.992       .  S
O2730      H2731   0.991       .  S
C2733      C2734   1.398       .  A
C2733      C2738   1.403       .  A
C2734      C2735   1.409       .  A
C2734      H2739   1.084       .  S
C2735      C2736   1.427       .  A
C2736      C2737   1.417       .  A
C2737      C2738   1.395       .  A
C2737      H2741   1.079       .  S
C2738      O2742   1.373       .  S
O2740      H2744   0.992       .  S
O2742      H2743   0.992       .  S
C2745      C2746   1.414       .  A
C2745      C2750   1.428       .  A
C2746      C2747   1.385       .  A
C2747      C2748   1.408       .  A
C2747      O2752   1.373       .  S
C2748      C2749   1.404       .  A
C2749      C2750   1.414       .  A
C2749      H2753   1.083       .  S
C2750      O2754   1.370   1_455  S
O2752      H2756   0.992       .  S
O2754      H2755   0.992   1_655  S
C2757      C2758   1.421       .  A
C2757      C2762   1.425       .  A
C2758      C2759   1.384       .  A
C2758      H2763   1.074       .  S
C2759      C2760   1.396       .  A
C2759      O2764   1.374       .  S
C2760      C2761   1.405       .  A
C2761      C2762   1.418       .  A
C2761      H2765   1.083       .  S
C2762      O2766   1.372       .  S
O2764      H2768   0.992       .  S
O2766      H2767   0.992       .  S
C2769      C2770   1.403       .  A
C2769      C2774   1.408       .  A
C2770      C2771   1.412       .  A
C2770      H2775   1.083       .  S
C2771      C2772   1.427       .  A
C2771      O2776   1.371       .  S
C2772      C2773   1.415       .  A
C2773      C2774   1.407       .  A
C2773      H2777   1.079       .  S
C2774      O2778   1.372       .  S
O2776      H2780   0.991       .  S
O2778      H2779   0.992       .  S
C2781      C2782   1.397       .  A
C2781      C2786   1.403       .  A
C2782      C2783   1.409       .  A
C2782      H2787   1.084       .  S
C2783      C2784   1.428       .  A
C2783      O2788   1.373       .  S
C2784      C2785   1.415       .  A
C2785      C2786   1.395       .  A
C2786      O2790   1.373       .  S
O2788      H2792   0.992       .  S
C2793      C2794   1.406       .  A
C2793      C2798   1.408       .  A
C2794      C2795   1.396       .  A
C2794      H2799   1.083       .  S
C2795      C2796   1.418       .  A
C2795      O2800   1.372       .  S
C2796      C2797   1.416   1_565  A
C2797      C2798   1.403   1_545  A
C2797      H2801   1.082       .  S
C2798      O2802   1.371   1_565  S
O2800      H2804   0.992       .  S
O2802      H2803   0.992       .  S
C2805      C2806   1.406       .  A
C2805      C2810   1.407       .  A
C2806      C2807   1.416       .  A
C2806      H2811   1.083       .  S
C2807      C2808   1.425       .  A
C2807      O2812   1.372   1_455  S
C2808      C2809   1.418       .  A
C2809      C2810   1.391       .  A
C2810      O2814   1.373       .  S
O2812      H2816   0.992       .  S
O2814      H2815   0.992       .  S
C2817      C2818   1.406       .  A
C2817      C2822   1.407       .  A
C2818      C2819   1.416       .  A
C2818      H2823   1.083       .  S
C2819      C2820   1.424       .  A
C2819      O2824   1.373       .  S
C2820      C2821   1.414       .  A
C2821      C2822   1.404       .  A
C2821      H2825   1.080       .  S
C2822      O2826   1.371       .  S
O2824      H2828   0.992       .  S
O2826      H2827   0.992       .  S
C2829      C2830   1.417       .  A
C2829      C2834   1.422       .  A
C2830      C2831   1.422       .  A
C2830      H2835   1.081       .  S
C2831      C2832   1.414       .  A
C2831      O2836   1.370       .  S
C2832      C2833   1.400       .  A
C2833      C2834   1.377       .  A
C2833      H2837   1.084       .  S
C2834      O2838   1.375       .  S
O2836      H2840   0.992       .  S
O2838      H2839   0.992       .  S
C2841      C2842   1.401       .  A
C2841      C2846   1.402       .  A
C2842      C2843   1.411   1_455  A
C2842      H2847   1.083       .  S
C2843      C2844   1.425   1_655  A
C2843      O2848   1.373       .  S
C2844      C2845   1.415       .  A
C2845      C2846   1.388       .  A
C2845      H2849   1.079       .  S
C2846      O2850   1.371       .  S
O2848      H2852   0.992       .  S
O2850      H2851   0.992       .  S
C2853      C2854   1.404       .  A
C2853      C2858   1.409       .  A
C2854      C2855   1.387   1_565  A
C2854      H2859   1.083       .  S
C2855      C2856   1.418   1_545  A
C2855      O2860   1.373       .  S
C2856      C2857   1.420       .  A
C2857      C2858   1.412       .  A
C2857      H2861   1.079   1_455  S
C2858      O2862   1.371       .  S
O2860      H2864   0.992       .  S
O2862      H2863   0.992       .  S
C2865      C2866   1.397       .  A
C2865      C2870   1.412       .  A
C2866      C2867   1.390       .  A
C2866      H2871   1.084       .  S
C2867      C2868   1.431       .  A
C2867      O2872   1.375       .  S
C2868      C2869   1.413       .  A
C2869      C2870   1.408       .  A
C2869      H2873   1.083   1_655  S
C2870      O2874   1.371       .  S
O2872      H2876   0.993       .  S
O2874      H2875   0.992       .  S
C2877      C2878   1.404       .  A
C2877      C2882   1.413       .  A
C2878      C2879   1.409       .  A
C2878      H2883   1.083       .  S
C2879      C2880   1.426       .  A
C2879      O2884   1.371       .  S
C2880      C2881   1.411       .  A
C2881      C2882   1.388       .  A
C2881      H2885   1.084       .  S
C2882      O2886   1.372       .  S
O2884      H2888   0.992   1_655  S
O2886      H2887   0.992       .  S
C2889      C2890   1.419       .  A
C2889      C2894   1.436       .  A
C2890      C2891   1.406       .  A
C2890      H2895   1.084       .  S
C2891      C2892   1.403       .  A
C2891      O2896   1.371       .  S
C2892      C2893   1.387       .  A
C2893      C2894   1.390       .  A
C2893      H2897   1.085       .  S
C2894      O2898   1.370       .  S
O2896      H2900   0.992       .  S
O2898      H2899   0.992       .  S
C2901      C2902   1.391       .  A
C2901      C2906   1.406       .  A
C2902      C2903   1.400       .  A
C2902      H2907   1.084       .  S
C2903      C2904   1.434       .  A
C2903      O2908   1.375       .  S
C2904      C2905   1.414       .  A
C2905      C2906   1.410       .  A
C2905      H2909   1.083       .  S
C2906      O2910   1.371       .  S
O2908      H2912   0.993       .  S
O2910      H2911   0.992       .  S
C2913      C2914   1.400       .  A
C2913      C2918   1.411       .  A
C2914      C2915   1.384       .  A
C2914      H2919   1.083       .  S
C2915      C2916   1.421       .  A
C2915      O2920   1.373   1_565  S
C2916      C2917   1.416       .  A
C2917      C2918   1.410       .  A
C2917      H2921   1.079       .  S
C2918      O2922   1.371       .  S
O2920      H2924   0.992       .  S
O2922      H2923   0.992       .  S
C2925      C2926   1.401       .  A
C2925      C2930   1.408       .  A
C2926      C2927   1.393       .  A
C2926      H2931   1.083       .  S
C2927      C2928   1.427       .  A
C2928      C2929   1.417       .  A
C2929      C2930   1.407       .  A
C2929      H2933   1.083   1_655  S
C2930      O2934   1.371       .  S
O2932      H2936   0.993       .  S
O2934      H2935   0.992       .  S
C2937      C2938   1.397       .  A
C2937      C2942   1.401       .  A
C2938      C2939   1.401       .  A
C2938      H2943   1.084       .  S
C2939      C2940   1.429       .  A
C2939      O2944   1.373       .  S
C2940      C2941   1.417       .  A
C2941      C2942   1.397       .  A
C2941      H2945   1.075       .  S
C2942      O2946   1.373       .  S
O2944      H2948   0.992       .  S
O2946      H2947   0.992       .  S
C2949      C2950   1.399       .  A
C2949      C2954   1.409       .  A
C2950      C2951   1.397       .  A
C2950      H2955   1.084       .  S
C2951      C2952   1.425       .  A
C2951      O2956   1.372       .  S
C2952      C2953   1.414       .  A
C2953      C2954   1.405       .  A
C2953      H2957   1.078       .  S
C2954      O2958   1.372       .  S
O2956      H2960   0.992       .  S
O2958      H2959   0.992       .  S
C2961      C2962   1.415       .  A
C2961      C2966   1.425       .  A
C2962      C2963   1.403       .  A
C2962      H2967   1.079       .  S
C2963      C2964   1.408       .  A
C2963      O2968   1.372       .  S
C2964      C2965   1.397       .  A
C2965      C2966   1.395       .  A
C2965      H2969   1.084       .  S
C2966      O2970   1.371       .  S
O2968      H2972   0.992       .  S
O2970      H2971   0.992       .  S
C2973      C2974   1.414       .  A
C2973      C2978   1.424       .  A
C2974      C2975   1.385       .  A
C2974      H2979   1.083       .  S
C2975      C2976   1.405       .  A
C2975      O2980   1.373       .  S
C2976      C2977   1.408       .  A
C2977      C2978   1.413       .  A
C2977      H2981   1.084       .  S
C2978      O2982   1.371       .  S
O2980      H2984   0.992       .  S
O2982      H2983   0.992       .  S
C2985      C2986   1.418       .  A
C2985      C2990   1.419       .  A
C2986      C2987   1.389       .  A
C2986      H2991   1.082       .  S
C2987      C2988   1.398       .  A
C2987      O2992   1.374       .  S
C2988      C2989   1.401       .  A
C2989      C2990   1.407       .  A
C2989      H2993   1.083       .  S
C2990      O2994   1.369       .  S
O2992      H2996   0.992       .  S
O2994      H2995   0.992       .  S
C2997      C2998   1.413       .  A
C2997      C3002   1.428       .  A
C2998      C2999   1.401       .  A
C2998      H3003   1.082       .  S
C2999      C3000   1.403       .  A
C2999      O3004   1.372       .  S
C3000      C3001   1.394       .  A
C3001      C3002   1.398       .  A
C3001      H3005   1.084       .  S
C3002      O3006   1.374       .  S
O3004      H3008   0.992       .  S
O3006      H3007   0.993       .  S
C3009      C3010   1.420       .  A
C3009      C3014   1.423       .  A
C3010      C3011   1.396       .  A
C3010      H3015   1.078       .  S
C3011      C3012   1.403       .  A
C3011      O3016   1.372       .  S
C3012      C3013   1.403       .  A
C3013      C3014   1.401       .  A
C3013      H3017   1.084       .  S
C3014      O3018   1.372       .  S
O3016      H3020   0.992       .  S
O3018      H3019   0.992       .  S
C3021      C3022   1.418       .  A
C3021      C3026   1.422       .  A
C3022      C3023   1.402       .  A
C3022      H3027   1.080       .  S
C3023      C3024   1.407       .  A
C3023      O3028   1.372       .  S
C3024      C3025   1.403       .  A
C3025      C3026   1.399       .  A
C3025      H3029   1.084       .  S
C3026      O3030   1.374       .  S
O3028      H3032   0.992       .  S
O3030      H3031   0.992       .  S
C3033      C3034   1.399       .  A
C3033      C3038   1.403       .  A
C3034      C3035   1.409       .  A
C3034      H3039   1.084       .  S
C3035      C3036   1.426       .  A
C3035      O3040   1.373       .  S
C3036      C3037   1.416       .  A
C3037      C3038   1.390       .  A
C3037      H3041   1.075       .  S
C3038      O3042   1.373       .  S
O3040      H3044   0.992       .  S
O3042      H3043   0.992       .  S
C3045      C3046   1.410       .  A
C3045      C3050   1.428       .  A
C3046      C3047   1.383       .  A
C3046      H3051   1.084       .  S
C3047      C3048   1.405       .  A
C3047      O3052   1.371       .  S
C3048      C3049   1.403       .  A
C3049      C3050   1.414       .  A
C3049      H3053   1.083       .  S
C3050      O3054   1.370       .  S
O3052      H3056   0.992       .  S
O3054      H3055   0.992       .  S
