geometry optimzed in LAMMPS
_audit_creation_date              2020-11-30 
_audit_creation_method            'lammps2cif' 
_symmetry_space_group_name_H-M    'P1' 
_symmetry_Int_Tables_number       1 
_symmetry_cell_setting            triclinic 
loop_ 
_symmetry_equiv_pos_as_xyz 
  x,y,z 
_cell_length_a                    56.35208649 
_cell_length_b                    55.83429787374427 
_cell_length_c                    56.11057697217725 
_cell_angle_alpha                 90.24925439106082 
_cell_angle_beta                  90.66173918677788 
_cell_angle_gamma                 90.17855789695376 
loop_ 
_atom_site_label 
_atom_site_type_symbol 
_atom_site_fract_x 
_atom_site_fract_y 
_atom_site_fract_z 
_atom_site_charge 
C1          C  0.60085505  0.10006991  0.72141408     0.86700
C2          C  0.60477976  0.07288841  0.72419881    -0.53500
C3          C  0.59484490  0.06299926  0.74411916     0.09600
C4          C  0.58205506  0.08147767  0.75978046     0.20600
C5          C  0.57365656  0.10289985  0.72323949    -0.54300
C6          C  0.56371386  0.09276029  0.74280357     0.09700
C7          C  0.61010768  0.11111026  0.74487395    -0.53800
C8          C  0.60046742  0.10138715  0.76497616     0.10300
H9          H  0.61378175  0.06223564  0.71084826     0.14800
H10         H  0.57428018  0.07406917  0.77612572     0.00600
H11         H  0.56223041  0.11124240  0.71020001     0.15100
H12         H  0.62246432  0.12605545  0.74553450     0.14900
C13         C  0.59793507  0.92328040  0.77996696     0.86700
C14         C  0.60791447  0.91212555  0.75678192    -0.53500
C15         C  0.59961192  0.92250520  0.73617020     0.09600
C16         C  0.58132025  0.94257612  0.74069715     0.20600
C17         C  0.60352180  0.94999065  0.77759371    -0.54300
C18         C  0.59483739  0.96013220  0.75737087     0.09700
C19         C  0.57088063  0.92110769  0.77655297    -0.53800
C20         C  0.56171463  0.93087914  0.75607603     0.10300
H21         H  0.62024628  0.89739490  0.75622344     0.14800
H22         H  0.57481283  0.95108759  0.72413858     0.00600
H23         H  0.61313937  0.96026357  0.79106278     0.15100
H24         H  0.55986369  0.91207198  0.78948917     0.14900
C25         C  0.42274027  0.08989523  0.71892649     0.86700
C26         C  0.41456730  0.10099853  0.74254458    -0.53500
C27         C  0.42506439  0.09158934  0.76258413     0.09600
C28         C  0.44355389  0.07165390  0.75674156     0.20600
C29         C  0.44997600  0.09303688  0.71985014    -0.54300
C30         C  0.46105591  0.08295019  0.73900789     0.09700
C31         C  0.41912536  0.06273099  0.72190808    -0.53800
C32         C  0.42989024  0.05303385  0.74160880     0.10300
H33         H  0.40250773  0.11604026  0.74296571     0.14800
H34         H  0.45226768  0.06369211  0.77261634     0.00600
H35         H  0.46032500  0.10259226  0.70697631     0.15100
H36         H  0.40942208  0.05189595  0.70894337     0.14900
C37         C  0.42006349  0.91112135  0.72507851     0.86700
C38         C  0.41545004  0.93816534  0.72716583    -0.53500
C39         C  0.42622643  0.94930014  0.74611757     0.09600
C40         C  0.44142129  0.93206976  0.76137114     0.20600
C41         C  0.44757482  0.90920187  0.72498575    -0.54300
C42         C  0.45872586  0.92025195  0.74374464     0.09700
C43         C  0.41323748  0.90079391  0.74957412    -0.53800
C44         C  0.42417470  0.91175905  0.76875358     0.10300
H45         H  0.40548158  0.94787550  0.71369698     0.14800
H46         H  0.45052934  0.94105768  0.77661889     0.00600
H47         H  0.45795931  0.90025227  0.71157087     0.15100
H48         H  0.40163202  0.88540823  0.75135923     0.14900
C49         C  0.78878499  0.60841096  0.90137281     0.86700
C50         C  0.76437996  0.61760081  0.89232311    -0.53500
C51         C  0.74510939  0.60710198  0.90279486     0.09600
C52         C  0.75227055  0.58754067  0.92096313     0.20600
C53         C  0.78758483  0.61153402  0.92865046    -0.54300
C54         C  0.76884868  0.60016413  0.93913525     0.09700
C55         C  0.78733666  0.58125634  0.89709097    -0.53800
C56         C  0.76858018  0.57008576  0.90757700     0.10300
H57         H  0.76216571  0.63072409  0.87850353     0.14800
H58         H  0.73686154  0.57854708  0.92902916     0.00600
H59         H  0.80054773  0.62200945  0.93863579     0.15100
H60         H  0.80051945  0.57161187  0.88691719     0.14900
C61         C  0.73434095  0.41972071  0.07391548     0.86700
C62         C  0.75736346  0.40972660  0.08509292    -0.53500
C63         C  0.77775643  0.41901055  0.07568665     0.09600
C64         C  0.77328746  0.43784597  0.05611664     0.20600
C65         C  0.73712829  0.44708140  0.07745101    -0.54300
C66         C  0.75726253  0.45660579  0.06819327     0.09700
C67         C  0.73700580  0.41595918  0.04688523    -0.53800
C68         C  0.75736778  0.42503359  0.03728836     0.10300
H69         H  0.75756624  0.39722810  0.09985064     0.14800
H70         H  0.78986753  0.44570348  0.04906269     0.00600
H71         H  0.72481876  0.45855652  0.08663618     0.15100
H72         H  0.72296299  0.40794258  0.03616398     0.14900
C73         C  0.73500935  0.59644117  0.08094749     0.86700
C74         C  0.73425016  0.60135548  0.05394286    -0.53500
C75         C  0.75305037  0.59247103  0.04153435     0.09600
C76         C  0.77132574  0.57957956  0.05759983     0.20600
C77         C  0.73833675  0.56897011  0.08265961    -0.54300
C78         C  0.75704563  0.56012770  0.07032690     0.09700
C79         C  0.75917744  0.60659402  0.08949534    -0.53800
C80         C  0.77837451  0.59809301  0.07722209     0.10300
H81         H  0.72011060  0.61155162  0.04566119     0.14800
H82         H  0.78651081  0.57194582  0.04784464     0.00600
H83         H  0.72726819  0.55677596  0.09245245     0.15100
H84         H  0.76085938  0.61848025  0.10472850     0.14900
C85         C  0.73467867  0.42985441  0.89635156     0.86700
C86         C  0.73712059  0.45697159  0.89262426    -0.53500
C87         C  0.75674670  0.46686938  0.90307409     0.09600
C88         C  0.77306584  0.44866548  0.91573342     0.20600
C89         C  0.75827116  0.41986980  0.88638752    -0.54300
C90         C  0.77848435  0.43003580  0.89600779     0.09700
C91         C  0.73698318  0.42626527  0.92336439    -0.53800
C92         C  0.75709214  0.43554749  0.93392882     0.10300
H93         H  0.72434575  0.46765364  0.88277966     0.14800
H94         H  0.78919405  0.45704275  0.92339114     0.00600
H95         H  0.75915716  0.40654351  0.87246497     0.15100
H96         H  0.72344244  0.41685701  0.93330650     0.14900
C97         C  0.09681834  0.74989808  0.57797986     0.86700
C98         C  0.06963047  0.75196847  0.58086977    -0.53500
C99         C  0.05925558  0.77007841  0.56818355     0.09600
C100        C  0.07746531  0.78490876  0.55398981     0.20600
C101        C  0.09950325  0.74783863  0.55067951    -0.54300
C102        C  0.08983109  0.76633303  0.53809715     0.09700
C103        C  0.10644115  0.77476006  0.58484727    -0.53800
C104        C  0.09628940  0.79309618  0.57244889     0.10300
H105        H  0.05963003  0.74012311  0.59221052     0.14800
H106        H  0.06990556  0.79995948  0.54359076     0.00600
H107        H  0.10617537  0.73203443  0.54183782     0.15100
H108        H  0.12036540  0.77757600  0.59811525     0.14900
C109        C  0.08785045  0.74005709  0.39757764     0.86700
C110        C  0.09912265  0.76363581  0.38868602    -0.53500
C111        C  0.08966114  0.78396965  0.39859512     0.09600
C112        C  0.06958052  0.77874598  0.41659122     0.20600
C113        C  0.09092211  0.74195360  0.42470453    -0.54300
C114        C  0.08105497  0.76172678  0.43490953     0.09700
C115        C  0.06126436  0.74319759  0.39280197    -0.53800
C116        C  0.05142218  0.76309765  0.40287483     0.10300
H117        H  0.11481651  0.76431788  0.37779183     0.14800
H118        H  0.06192598  0.79500437  0.42482140     0.00600
H119        H  0.10051633  0.72871956  0.43508808     0.15100
H120        H  0.05079291  0.73001746  0.38295942     0.14900
C121        C  0.92016223  0.81166836  0.56736004     0.86700
C122        C  0.91152972  0.78810448  0.57839323    -0.53500
C123        C  0.92172677  0.76794362  0.56916757     0.09600
C124        C  0.94006659  0.77326096  0.54963184     0.20600
C125        C  0.94743031  0.81063187  0.57094247    -0.54300
C126        C  0.95794660  0.79083124  0.56138883     0.09700
C127        C  0.91655143  0.80844323  0.54035144    -0.53800
C128        C  0.92683968  0.78844916  0.53100807     0.10300
H129        H  0.89896424  0.78746442  0.59290043     0.14800
H130        H  0.94823780  0.75690610  0.54211479     0.00600
H131        H  0.95775698  0.82327259  0.58128234     0.15100
H132        H  0.90689976  0.82121444  0.52940681     0.14900
C133        C  0.90896883  0.75089994  0.39179418     0.86700
C134        C  0.93593149  0.74959402  0.38851835    -0.53500
C135        C  0.94853538  0.76754068  0.39930865     0.09600
C136        C  0.93286125  0.78612924  0.41168319     0.20600
C137        C  0.90564522  0.75328566  0.41912005    -0.54300
C138        C  0.91841731  0.77142559  0.42941930     0.09700
C139        C  0.90184205  0.77593374  0.38258680    -0.53800
C140        C  0.91430591  0.79454966  0.39291896     0.10300
H141        H  0.94439430  0.73500710  0.37903535     0.14800
H142        H  0.94319139  0.80084137  0.42028885     0.00600
H143        H  0.89438583  0.74192703  0.42976594     0.15100
H144        H  0.88659089  0.77877705  0.37103496     0.14900
In145      In  0.60683932  0.15801112  0.08440845     1.36900
C146        C  0.62770438  0.14516328  0.04349335     0.77800
O147        O  0.57276499  0.13916527  0.09224154    -0.60600
O148        O  0.57241483  0.16493442  0.06473628    -0.51600
C149        C  0.61751947  0.13752044  0.12684882     0.70500
O150        O  0.61803860  0.12600041  0.10745959    -0.46400
C151        C  0.60916088  0.20571101  0.08789262     0.75200
O152        O  0.63731024  0.15966932  0.05797525    -0.58300
O153        O  0.59072857  0.19373339  0.09227413    -0.48400
O154        O  0.60927150  0.13535889  0.05139685    -0.54700
C155        C  0.56064792  0.15026507  0.07689781     0.85300
O156        O  0.61459786  0.15963987  0.12393696    -0.56600
O157        O  0.62693452  0.19315391  0.08244454    -0.59900
In158      In  0.60001363  0.35636541  0.07825629     1.36900
C159        C  0.55738828  0.37199115  0.09232003     0.77800
O160        O  0.61045077  0.37486041  0.04447394    -0.60600
O161        O  0.58663493  0.34544652  0.04239676    -0.51600
C162        C  0.64138772  0.37660378  0.09155732     0.70500
O163        O  0.62220495  0.38819543  0.09109749    -0.46400
C164        C  0.60276235  0.30915667  0.08504359     0.75200
O165        O  0.56663152  0.37766854  0.07286333    -0.58300
O166        O  0.60961634  0.31957457  0.06646230    -0.48400
O167        O  0.57094833  0.36004311  0.10581724    -0.54700
C168        C  0.59812336  0.36121587  0.03132815     0.85300
O169        O  0.63856657  0.35447908  0.08850364    -0.56600
O170        O  0.59432717  0.32301960  0.10066107    -0.59900
In171      In  0.41350273  0.16276856  0.08439451     1.36900
C172        C  0.39395983  0.15161749  0.04153391     0.77800
O173        O  0.39431445  0.19786826  0.09128853    -0.60600
O174        O  0.43137761  0.19849916  0.08543091    -0.51600
C175        C  0.40350310  0.14198175  0.12651825     0.70500
O176        O  0.39718660  0.13261929  0.10687327    -0.46400
C177        C  0.45903679  0.15227476  0.07916479     0.75200
O178        O  0.38527082  0.16747421  0.05491602    -0.58300
O179        O  0.44882203  0.16906629  0.06824678    -0.48400
O180        O  0.41027443  0.13984950  0.05143634    -0.54700
C181        C  0.41290657  0.21049365  0.08921173     0.85300
O182        O  0.41219027  0.16262409  0.12429063    -0.56600
O183        O  0.44570154  0.14027976  0.09247072    -0.59900
In184      In  0.41421912  0.36003155  0.07197705     1.36900
C185        C  0.42275403  0.36554118  0.02584775     0.77800
O186        O  0.37584228  0.35924421  0.06232212    -0.60600
O187        O  0.38692901  0.38656562  0.08622779    -0.51600
C188        C  0.41094448  0.31382274  0.08258463     0.70500
O189        O  0.42142635  0.32194499  0.06456931    -0.46400
C190        C  0.45568091  0.37363073  0.09232174     0.75200
O191        O  0.42642320  0.34636953  0.03706169    -0.58300
O192        O  0.44587371  0.38465551  0.07538831    -0.48400
O193        O  0.41501845  0.38245450  0.03848991    -0.54700
C194        C  0.37004031  0.37747782  0.07404472     0.85300
O195        O  0.40127077  0.32957077  0.09552872    -0.56600
O196        O  0.44241325  0.35814258  0.10157942    -0.59900
In197      In  0.60498569  0.16405041  0.90260686     1.36900
C198        C  0.56123595  0.15931195  0.91897706     0.77800
O199        O  0.59252189  0.15889155  0.86492579    -0.60600
O200        O  0.62310035  0.13969537  0.87540021    -0.51600
C201        C  0.61236091  0.20966748  0.89158980     0.70500
O202        O  0.59220543  0.20043223  0.89460900    -0.46400
C203        C  0.62656915  0.14919288  0.94273569     0.75200
O204        O  0.57347828  0.17795047  0.92234896    -0.58300
O205        O  0.61400924  0.13556549  0.92979886    -0.48400
O206        O  0.57181040  0.14285267  0.90792414    -0.54700
C207        C  0.60840328  0.14447590  0.85890989     0.85300
O208        O  0.62959716  0.19545283  0.89477101    -0.56600
O209        O  0.63039368  0.16942985  0.93357637    -0.59900
In210      In  0.41651595  0.35366137  0.87739824     1.36900
C211        C  0.42437548  0.36045012  0.92373877     0.77800
O212        O  0.44958248  0.37609962  0.87668559    -0.60600
O213        O  0.44654463  0.34929086  0.85030730    -0.51600
C214        C  0.40820724  0.30685320  0.87477742     0.70500
O215        O  0.40439394  0.31921110  0.89319089    -0.46400
C216        C  0.37521993  0.37499658  0.86441703     0.75200
O217        O  0.43250932  0.34286247  0.91239494    -0.58300
O218        O  0.39499702  0.38548724  0.86273692    -0.48400
O219        O  0.41239584  0.37477111  0.91116587    -0.54700
C220        C  0.45967875  0.36489093  0.86020004     0.85300
O221        O  0.41609844  0.31866599  0.85729293    -0.56600
O222        O  0.37715658  0.35341476  0.87013369    -0.59900
In223      In  0.60399480  0.35852253  0.88184258     1.36900
C224        C  0.56142756  0.37101073  0.86342802     0.77800
O225        O  0.60093030  0.32359540  0.86142066    -0.60600
O226        O  0.61808614  0.32366852  0.89531236    -0.51600
C227        C  0.64385838  0.38316139  0.87154281     0.70500
O228        O  0.62423815  0.39305214  0.87565076    -0.46400
C229        C  0.59833297  0.36121583  0.92867914     0.75200
O230        O  0.57589034  0.35792637  0.85235619    -0.58300
O231        O  0.58584382  0.34764339  0.91561965    -0.48400
O232        O  0.56993966  0.37992556  0.88231513    -0.54700
C233        C  0.61085613  0.31151942  0.87770021     0.85300
O234        O  0.64214483  0.36083676  0.86884527    -0.56600
O235        O  0.61325722  0.37356383  0.91756851    -0.59900
In236      In  0.41802568  0.16036008  0.89801267     1.36900
C237        C  0.41727912  0.13542494  0.85700488     0.77800
O238        O  0.39282930  0.19040360  0.88883366    -0.60600
O239        O  0.42954937  0.19525648  0.88208629    -0.51600
C240        C  0.39666364  0.15138901  0.93965171     0.70500
O241        O  0.40152598  0.13488316  0.92502117    -0.46400
C242        C  0.46112819  0.15630845  0.91667362     0.75200
O243        O  0.43571707  0.14269350  0.86750332    -0.58300
O244        O  0.45116279  0.17617592  0.91297078    -0.48400
O245        O  0.39833102  0.14030181  0.86794860    -0.54700
C246        C  0.40908479  0.20429729  0.88185822     0.85300
O247        O  0.40020082  0.17209915  0.93168469    -0.56600
O248        O  0.44853621  0.13827418  0.91155116    -0.59900
In249      In  0.60253064  0.65369499  0.90554137     1.36900
C250        C  0.56111539  0.64163711  0.88360490     0.77800
O251        O  0.61182220  0.63400024  0.93938626    -0.60600
O252        O  0.58437085  0.65975488  0.94017730    -0.51600
C253        C  0.64565443  0.63558426  0.89497138     0.70500
O254        O  0.62714263  0.62275222  0.89412091    -0.46400
C255        C  0.60762947  0.70152409  0.90438572     0.75200
O256        O  0.57509575  0.65725408  0.87564117    -0.58300
O257        O  0.60490661  0.68962706  0.92322627    -0.48400
O258        O  0.56974504  0.63012822  0.90083793    -0.54700
C259        C  0.59661834  0.64479636  0.95169375     0.85300
O260        O  0.64143373  0.65728259  0.89903708    -0.56600
O261        O  0.60731361  0.68888284  0.88560676    -0.59900
In262      In  0.41768084  0.65580046  0.08834149     1.36900
C263        C  0.45763647  0.64090437  0.11060551     0.77800
O264        O  0.43532976  0.66651081  0.05444050    -0.60600
O265        O  0.41518510  0.63442533  0.05435530    -0.51600
C266        C  0.37368847  0.63732411  0.09174949     0.70500
O267        O  0.39158896  0.62629024  0.09981645    -0.46400
C268        C  0.41439091  0.70276461  0.09685294     0.75200
O269        O  0.45027224  0.63282040  0.09090614    -0.58300
O270        O  0.41399393  0.69383615  0.07616892    -0.48400
O271        O  0.44324979  0.65499914  0.12040773    -0.54700
C272        C  0.42733326  0.64899338  0.04246662     0.85300
O273        O  0.37838701  0.65812764  0.08482377    -0.56600
O274        O  0.41625428  0.68762207  0.11345882    -0.59900
In275      In  0.59900988  0.65144856  0.10024591     1.36900
C276        C  0.59192120  0.64375358  0.05391649     0.77800
O277        O  0.63822908  0.65442978  0.09787328    -0.60600
O278        O  0.62519314  0.62405349  0.11582939    -0.51600
C279        C  0.60407617  0.69862472  0.10454862     0.70500
O280        O  0.59608604  0.68804646  0.08625019    -0.46400
C281        C  0.55807293  0.63630026  0.11916364     0.75200
O282        O  0.58090904  0.65958874  0.06532894    -0.58300
O283        O  0.56962142  0.65389806  0.12753727    -0.48400
O284        O  0.60579931  0.63131206  0.06650775    -0.54700
C285        C  0.64313285  0.63488806  0.10769842     0.85300
O286        O  0.60896497  0.68489941  0.12184646    -0.56600
O287        O  0.56938373  0.62443843  0.10398440    -0.59900
In288      In  0.41719551  0.65827714  0.89443860     1.36900
C289        C  0.42906479  0.65171693  0.94009739     0.77800
O290        O  0.37994394  0.65236501  0.90523700    -0.60600
O291        O  0.39048208  0.63261768  0.87512293    -0.51600
C292        C  0.40529270  0.70372866  0.88705014     0.70500
O293        O  0.41079661  0.69505452  0.90706008    -0.46400
C294        C  0.45965068  0.64729958  0.87566181     0.75200
O295        O  0.43330395  0.67097910  0.92929205    -0.58300
O296        O  0.44937381  0.66691412  0.87174557    -0.48400
O297        O  0.41987926  0.63559095  0.92715026    -0.54700
C298        C  0.37399394  0.63729951  0.88960829     0.85300
O299        O  0.40635481  0.68899992  0.86983653    -0.56600
O300        O  0.44675485  0.63232457  0.88623441    -0.59900
In301      In  0.42734887  0.85291940  0.09768668     1.36900
C302        C  0.40927961  0.86463476  0.05394225     0.77800
O303        O  0.45966202  0.87567825  0.10355970    -0.60600
O304        O  0.46249352  0.84373852  0.08290467    -0.51600
C305        C  0.41968592  0.87135946  0.14166256     0.70500
O306        O  0.41335769  0.88222436  0.12284476    -0.46400
C307        C  0.42103366  0.80575940  0.10238698     0.75200
O308        O  0.39821458  0.85191122  0.06873990    -0.58300
O309        O  0.44120980  0.81560819  0.10321265    -0.48400
O310        O  0.42778977  0.87391007  0.06270999    -0.54700
C311        C  0.47276760  0.86186770  0.09177168     0.85300
O312        O  0.42727488  0.85065172  0.13768206    -0.56600
O313        O  0.40397397  0.82011749  0.09914272    -0.59900
In314      In  0.61262508  0.85262351  0.91235028     1.36900
C315        C  0.56599872  0.85000131  0.91845007     0.77800
O316        O  0.61882057  0.87763399  0.94342448    -0.60600
O317        O  0.64495587  0.85159564  0.93649504    -0.51600
C318        C  0.61754124  0.80499663  0.91068967     0.70500
O319        O  0.62231176  0.81839519  0.89327278    -0.46400
C320        C  0.61775169  0.87908740  0.87267160     0.75200
O321        O  0.57681321  0.83899753  0.90226762    -0.58300
O322        O  0.60281379  0.88315061  0.88863031    -0.48400
O323        O  0.57907110  0.86297665  0.93152059    -0.54700
C324        C  0.63711567  0.86705349  0.95082723     0.85300
O325        O  0.61143840  0.81614235  0.92921603    -0.56600
O326        O  0.63199269  0.86246266  0.87789241    -0.59900
In327      In  0.61803252  0.84867059  0.09175524     1.36900
C328        C  0.57329936  0.86186796  0.08475428     0.77800
O329        O  0.61771002  0.84818436  0.13159044    -0.60600
O330        O  0.63593218  0.87693352  0.11571068    -0.51600
C331        C  0.61576340  0.80134312  0.09648881     0.70500
O332        O  0.59866416  0.81410178  0.08953724    -0.46400
C333        C  0.64006762  0.85997552  0.05126063     0.75200
O334        O  0.58302033  0.84589385  0.07237553    -0.58300
O335        O  0.64544442  0.84153360  0.06300912    -0.48400
O336        O  0.58686353  0.87181856  0.09977389    -0.54700
C337        C  0.62801385  0.86798617  0.13471188     0.85300
O338        O  0.63463153  0.81290098  0.10127571    -0.56600
O339        O  0.62603662  0.87371146  0.06190467    -0.59900
In340      In  0.41912707  0.84686414  0.90616221     1.36900
C341        C  0.46447065  0.84372016  0.91767220     0.77800
O342        O  0.43721874  0.86607172  0.87620553    -0.60600
O343        O  0.40002653  0.86857764  0.87673448    -0.51600
C344        C  0.40227712  0.80480586  0.89194033     0.70500
O345        O  0.42303623  0.81184613  0.88779707    -0.46400
C346        C  0.40378288  0.85604460  0.95101393     0.75200
O347        O  0.45251267  0.82594146  0.91048707    -0.58300
O348        O  0.40749840  0.83535468  0.94295620    -0.48400
O349        O  0.45273023  0.86274239  0.92031814    -0.54700
C350        C  0.41894059  0.87335411  0.86563552     0.85300
O351        O  0.38910964  0.82012492  0.90182962    -0.56600
O352        O  0.40606296  0.87230009  0.93548356    -0.59900
C353        C  0.59904863  0.09544224  0.22093147     0.86700
C354        C  0.60932322  0.10604618  0.24433387    -0.53500
C355        C  0.60000150  0.09654598  0.26485809     0.09600
C356        C  0.58110465  0.07686223  0.25985722     0.20600
C357        C  0.60332756  0.06837459  0.22389933    -0.54300
C358        C  0.59372956  0.05864338  0.24378148     0.09700
C359        C  0.57209598  0.09825427  0.22316783    -0.53800
C360        C  0.56248821  0.08861164  0.24329287     0.10300
H361        H  0.62346807  0.11925850  0.24466806     0.14800
H362        H  0.57365904  0.06866165  0.27606072     0.00600
H363        H  0.61307918  0.05715476  0.21170782     0.15100
H364        H  0.56134933  0.10682804  0.20947327     0.14900
C365        C  0.42714695  0.91593485  0.28013134     0.86700
C366        C  0.41870447  0.90589138  0.25568504    -0.53500
C367        C  0.42939921  0.91592548  0.23631678     0.09600
C368        C  0.44790326  0.93539286  0.24342276     0.20600
C369        C  0.45421057  0.91241075  0.27966930    -0.54300
C370        C  0.46534757  0.92293863  0.26090151     0.09700
C371        C  0.42340798  0.94316013  0.27792624    -0.53800
C372        C  0.43466242  0.95384159  0.25918544     0.10300
H373        H  0.40632888  0.89121053  0.25333462     0.14800
H374        H  0.45696371  0.94319534  0.22791648     0.00600
H375        H  0.46354532  0.90183779  0.29290957     0.15100
H376        H  0.41218971  0.95277650  0.29017456     0.14900
C377        C  0.60552674  0.91707725  0.22380923     0.86700
C378        C  0.57876128  0.91226363  0.22556381    -0.53500
C379        C  0.56776084  0.92303964  0.24433656     0.09600
C380        C  0.58526601  0.93725577  0.26066106     0.20600
C381        C  0.60733826  0.94482793  0.22452474    -0.54300
C382        C  0.59677050  0.95528205  0.24373595     0.09700
C383        C  0.61582464  0.90924116  0.24800005    -0.53800
C384        C  0.60541655  0.91965760  0.26737804     0.10300
H385        H  0.56956865  0.90096733  0.21279869     0.14800
H386        H  0.57703828  0.94617458  0.27620604     0.00600
H387        H  0.61538464  0.95592045  0.21110180     0.15100
H388        H  0.63046748  0.89676875  0.24963423     0.14900
C389        C  0.42355414  0.09447957  0.21767233     0.86700
C390        C  0.44986741  0.10086514  0.22185587    -0.53500
C391        C  0.45982896  0.09165588  0.24211028     0.09600
C392        C  0.44238136  0.07623465  0.25647780     0.20600
C393        C  0.42328286  0.06668291  0.21849006    -0.54300
C394        C  0.43334014  0.05703197  0.23862396     0.09700
C395        C  0.41091204  0.10176800  0.24084484    -0.53800
C396        C  0.42067676  0.09224195  0.26114834     0.10300
H397        H  0.46017734  0.11040855  0.20871171     0.14800
H398        H  0.45040149  0.06886680  0.27303249     0.00600
H399        H  0.41508048  0.05532719  0.20516660     0.15100
H400        H  0.39522201  0.11298920  0.24110660     0.14900
In401      In  0.91551508  0.62950679  0.63000142     1.36900
C402        C  0.91119245  0.67401745  0.61236637     0.77800
O403        O  0.89345953  0.64083226  0.66208642    -0.60600
O404        O  0.92741735  0.62515570  0.66741690    -0.51600
C405        C  0.89369252  0.58800539  0.61702852     0.70500
O406        O  0.88533979  0.60218551  0.63232295    -0.46400
C407        C  0.96088048  0.61922418  0.62234857     0.75200
O408        O  0.90076894  0.65616053  0.60289225    -0.58300
O409        O  0.94967043  0.61257210  0.64046677    -0.48400
O410        O  0.92240879  0.66906650  0.63118547    -0.54700
C411        C  0.90900584  0.63358456  0.67681004     0.85300
O412        O  0.91086457  0.59683265  0.60591242    -0.56600
O413        O  0.94877786  0.63141911  0.60779954    -0.59900
In414      In  0.90466575  0.44235462  0.63982702     1.36900
C415        C  0.88707831  0.48542989  0.62580453     0.77800
O416        O  0.88912430  0.42610388  0.67330471    -0.60600
O417        O  0.91528232  0.45344617  0.67642547    -0.51600
C418        C  0.89347500  0.40459958  0.61214642     0.70500
O419        O  0.90751482  0.42107818  0.60635601    -0.46400
C420        C  0.95188774  0.43889510  0.63946058     0.75200
O421        O  0.87922277  0.47449845  0.64373342    -0.58300
O422        O  0.94083824  0.45772633  0.63409610    -0.48400
O423        O  0.90129320  0.47298617  0.61390923    -0.54700
C424        C  0.90217502  0.43866765  0.68697554     0.85300
O425        O  0.88210144  0.40910167  0.63091910    -0.56600
O426        O  0.93867975  0.42169788  0.64516529    -0.59900
In427      In  0.10108988  0.43253921  0.63645740     1.36900
C428        C  0.12458938  0.47176601  0.62292871     0.77800
O429        O  0.06549163  0.41777878  0.64516159    -0.60600
O430        O  0.06717409  0.45251188  0.63008917    -0.51600
C431        C  0.10637197  0.39370996  0.60834430     0.70500
O432        O  0.09185933  0.41022140  0.60410119    -0.46400
C433        C  0.10601874  0.43098319  0.68380046     0.75200
O434        O  0.13235617  0.45833169  0.63920645    -0.58300
O435        O  0.11520323  0.41543488  0.67029614    -0.48400
O436        O  0.10704898  0.46320091  0.61170091    -0.54700
C437        C  0.05427555  0.43592336  0.63798591     0.85300
O438        O  0.12012640  0.39821795  0.62576455    -0.56600
O439        O  0.09512101  0.44730301  0.67286001    -0.59900
In440      In  0.10695771  0.61366230  0.63601837     1.36900
C441        C  0.06156190  0.60662783  0.62498590     0.77800
O442        O  0.09962970  0.65272846  0.63867270    -0.60600
O443        O  0.12655054  0.64255312  0.61489275    -0.51600
C444        C  0.11018937  0.61392785  0.68323020     0.70500
O445        O  0.09243811  0.60647713  0.67151916    -0.46400
C446        C  0.12748939  0.57321022  0.62089044     0.75200
O447        O  0.07119720  0.59825103  0.64349986    -0.58300
O448        O  0.11195999  0.58404912  0.60884724    -0.48400
O449        O  0.07558967  0.61760499  0.61141254    -0.54700
C450        C  0.11434937  0.65947680  0.62347260     0.85300
O451        O  0.12712311  0.62137566  0.67059594    -0.56600
O452        O  0.13506778  0.58504310  0.63858715    -0.59900
In453      In  0.10020316  0.42621718  0.83426393     1.36900
C454        C  0.05916372  0.40484917  0.84684770     0.77800
O455        O  0.10315712  0.45772388  0.85977096    -0.60600
O456        O  0.08222325  0.46125877  0.82844281    -0.51600
C457        C  0.14534275  0.42073855  0.84956816     0.70500
O458        O  0.12916494  0.40619679  0.85565874    -0.46400
C459        C  0.10481206  0.42459708  0.78707851     0.75200
O460        O  0.06886303  0.40074177  0.82713930    -0.58300
O461        O  0.09784394  0.44258119  0.79867341    -0.48400
O462        O  0.07234853  0.41633740  0.86118863    -0.54700
C463        C  0.09056550  0.47123183  0.84691873     0.85300
O464        O  0.13821404  0.43649549  0.83534691    -0.56600
O465        O  0.10960360  0.40653237  0.79984368    -0.59900
In466      In  0.91432505  0.63019382  0.82736989     1.36900
C467        C  0.95684084  0.64904756  0.84022783     0.77800
O468        O  0.89590267  0.59471455  0.82832164    -0.60600
O469        O  0.93334700  0.59553083  0.83176429    -0.51600
C470        C  0.87648291  0.63914523  0.85463923     0.70500
O471        O  0.89624962  0.63229483  0.86267150    -0.46400
C472        C  0.90981516  0.63184361  0.77995997     0.75200
O473        O  0.94502092  0.65663320  0.82256437    -0.58300
O474        O  0.91819551  0.61432096  0.79122916    -0.48400
O475        O  0.94546923  0.63445574  0.85272572    -0.54700
C476        C  0.91471930  0.58299727  0.83138177     0.85300
O477        O  0.87714136  0.64558673  0.83313443    -0.56600
O478        O  0.90396187  0.64933962  0.79310383    -0.59900
In479      In  0.09732508  0.61829399  0.83256019     1.36900
C480        C  0.08752289  0.57337149  0.84557024     0.77800
O481        O  0.13683664  0.61547738  0.83019413    -0.60600
O482        O  0.12389064  0.63536029  0.85925792    -0.51600
C483        C  0.10179346  0.61633693  0.78566123     0.70500
O484        O  0.09297541  0.59951817  0.79761686    -0.46400
C485        C  0.05828877  0.64426481  0.84182716     0.75200
O486        O  0.07686957  0.58387341  0.82882034    -0.58300
O487        O  0.07072148  0.64783177  0.82368457    -0.48400
O488        O  0.10245812  0.58634032  0.85649340    -0.54700
C489        C  0.14188905  0.62675306  0.84901827     0.85300
O490        O  0.10821788  0.63443517  0.79780377    -0.56600
O491        O  0.06785070  0.63023870  0.85658402    -0.59900
In492      In  0.91615741  0.43322902  0.83739036     1.36900
C493        C  0.87542406  0.42179833  0.86012642     0.77800
O494        O  0.89866148  0.46863567  0.83933745    -0.60600
O495        O  0.93613148  0.46801155  0.84220086    -0.51600
C496        C  0.95752335  0.41238577  0.84994144     0.70500
O497        O  0.94488662  0.40502541  0.83268174    -0.46400
C498        C  0.91258410  0.43322371  0.78967257     0.75200
O499        O  0.89369852  0.42914282  0.87116761    -0.58300
O500        O  0.92111941  0.45026307  0.80169969    -0.48400
O501        O  0.87918538  0.41751304  0.83844465    -0.54700
C502        C  0.91760831  0.48054692  0.84110198     0.85300
O503        O  0.94736480  0.42796782  0.86246262    -0.56600
O504        O  0.90698162  0.41519378  0.80200764    -0.59900
C505        C  0.23690337  0.59655404  0.06887954     0.86700
C506        C  0.26015068  0.60727499  0.07906950    -0.53500
C507        C  0.28024123  0.59881655  0.06843690     0.09600
C508        C  0.27536150  0.57987635  0.04864716     0.20600
C509        C  0.23860412  0.60177713  0.04220102    -0.54300
C510        C  0.25811477  0.59244032  0.03120818     0.09700
C511        C  0.24024886  0.56946134  0.07115101    -0.53800
C512        C  0.26002429  0.56044586  0.06056423     0.10300
H513        H  0.26116994  0.62086446  0.09284798     0.14800
H514        H  0.29160798  0.57273501  0.04028468     0.00600
H515        H  0.22472325  0.61114508  0.03247146     0.15100
H516        H  0.22750350  0.55815195  0.08018025     0.14900
C517        C  0.28548991  0.42194779  0.88307123     0.86700
C518        C  0.26103919  0.41312795  0.87420350    -0.53500
C519        C  0.24239862  0.42327399  0.88577813     0.09600
C520        C  0.24978552  0.44160594  0.90505596     0.20600
C521        C  0.28378926  0.44938673  0.88011018    -0.54300
C522        C  0.26566184  0.45995334  0.89214708     0.09700
C523        C  0.28562659  0.41820758  0.91021561    -0.53800
C524        C  0.26690654  0.42799908  0.92206991     0.10300
H525        H  0.25858630  0.40133664  0.85894117     0.14800
H526        H  0.23411097  0.44972310  0.91357570     0.00600
H527        H  0.29477571  0.45978400  0.86838757     0.15100
H528        H  0.30043321  0.40960391  0.91903592     0.14900
C529        C  0.23374192  0.60357339  0.89018370     0.86700
C530        C  0.23427882  0.57661870  0.88401906    -0.53500
C531        C  0.25235575  0.56398560  0.89451295     0.09600
C532        C  0.26898727  0.57998167  0.90995126     0.20600
C533        C  0.23419046  0.60398575  0.91774071    -0.54300
C534        C  0.25223340  0.59141487  0.92804994     0.09700
C535        C  0.25842173  0.61298999  0.88342294    -0.53800
C536        C  0.27691819  0.60082384  0.89378351     0.10300
H537        H  0.22107510  0.56835200  0.87245808     0.14800
H538        H  0.28392871  0.57039091  0.91866921     0.00600
H539        H  0.22172867  0.61331173  0.92877242     0.15100
H540        H  0.26103800  0.62862344  0.87231124     0.14900
C541        C  0.23250429  0.42047054  0.06159233     0.86700
C542        C  0.23610287  0.44718169  0.06757650    -0.53500
C543        C  0.25622632  0.45722871  0.05846561     0.09600
C544        C  0.27109328  0.43947085  0.04387803     0.20600
C545        C  0.23394819  0.41894174  0.03429817    -0.54300
C546        C  0.25375495  0.42911725  0.02501037     0.09700
C547        C  0.25589885  0.40858642  0.07022419    -0.53800
C548        C  0.27605746  0.41864148  0.06108279     0.10300
H549        H  0.22316477  0.45741283  0.07743989     0.14800
H550        H  0.28736620  0.44731692  0.03607824     0.00600
H551        H  0.22047248  0.41039495  0.02316769     0.15100
H552        H  0.25703493  0.39328425  0.08192504     0.14900
In553      In  0.09704395  0.60672206  0.33061742     1.36900
C554        C  0.11121699  0.56285677  0.34473941     0.77800
O555        O  0.06312034  0.61608203  0.34922980    -0.60600
O556        O  0.06105967  0.59563640  0.31740243    -0.51600
C557        C  0.10941673  0.64751116  0.35343684     0.70500
O558        O  0.10706833  0.62769845  0.36391084    -0.46400
C559        C  0.10643152  0.60980222  0.28424603     0.75200
O560        O  0.09038514  0.57052339  0.34689942    -0.58300
O561        O  0.08898539  0.61995899  0.29379887    -0.48400
O562        O  0.12560097  0.57842101  0.33717795    -0.54700
C563        C  0.04999946  0.60566347  0.33409796     0.85300
O564        O  0.10896515  0.64571463  0.33109128    -0.56600
O565        O  0.11960981  0.59841641  0.29854709    -0.59900
In566      In  0.10400243  0.60680840  0.13473235     1.36900
C567        C  0.06204062  0.62567228  0.12061737     0.77800
O568        O  0.11402880  0.57143588  0.11952155    -0.60600
O569        O  0.08664811  0.57179960  0.14504283    -0.51600
C570        C  0.14483017  0.61701858  0.11240569     0.70500
O571        O  0.12543723  0.61335490  0.10153868    -0.46400
C572        C  0.11030359  0.61208675  0.18163933     0.75200
O573        O  0.07641735  0.63647909  0.13431578    -0.58300
O574        O  0.11309458  0.59263563  0.17060106    -0.48400
O575        O  0.07015475  0.60645565  0.11232216    -0.54700
C576        C  0.09965201  0.55938167  0.13166294     0.85300
O577        O  0.14261848  0.61892007  0.13459373    -0.56600
O578        O  0.10475795  0.62952798  0.16841271    -0.59900
In579      In  0.10470126  0.40836035  0.13136310     1.36900
C580        C  0.06046775  0.39409508  0.11810646     0.77800
O581        O  0.10292078  0.38637636  0.16501890    -0.60600
O582        O  0.11910508  0.42067090  0.16685719    -0.51600
C583        C  0.14176363  0.39532996  0.10475228     0.70500
O584        O  0.12240309  0.40266214  0.09610870    -0.46400
C585        C  0.10313447  0.45594332  0.13034679     0.75200
O586        O  0.07341313  0.38222622  0.13224400    -0.58300
O587        O  0.08778876  0.44335499  0.14069895    -0.48400
O588        O  0.07106494  0.41164867  0.10906494    -0.54700
C589        C  0.11255321  0.40232083  0.17798348     0.85300
O590        O  0.14075099  0.39050742  0.12661028    -0.56600
O591        O  0.11932476  0.44404576  0.12063005    -0.59900
In592      In  0.10173607  0.41688638  0.32753837     1.36900
C593        C  0.11831400  0.46019769  0.34156368     0.77800
O594        O  0.12544718  0.41395408  0.29484448    -0.60600
O595        O  0.08871582  0.40704637  0.29087822    -0.51600
C596        C  0.11186836  0.37801295  0.35468923     0.70500
O597        O  0.10255133  0.39661586  0.36310010    -0.46400
C598        C  0.05458374  0.42180063  0.32671152     0.75200
O599        O  0.10423747  0.44760788  0.35351450    -0.58300
O600        O  0.06500577  0.40226770  0.33060605    -0.48400
O601        O  0.12655425  0.44930192  0.32376059    -0.54700
C602        C  0.10851770  0.40838789  0.28082640     0.85300
O603        O  0.11904149  0.38075404  0.33368437    -0.56600
O604        O  0.06840951  0.43910866  0.32289174    -0.59900
In605      In  0.91864107  0.61126061  0.13165526     1.36900
C606        C  0.93155872  0.56678173  0.12271859     0.77800
O607        O  0.88391100  0.59512676  0.12172910    -0.60600
O608        O  0.88945533  0.63057254  0.10981599    -0.51600
C609        C  0.90621325  0.61868331  0.17640886     0.70500
O610        O  0.91226171  0.59849194  0.16841882    -0.46400
C611        C  0.96077961  0.63206792  0.12239132     0.75200
O612        O  0.93410409  0.57618959  0.14309607    -0.58300
O613        O  0.94732533  0.62361861  0.10628309    -0.48400
O614        O  0.92402757  0.58072691  0.10675442    -0.54700
C615        C  0.87575973  0.61247726  0.11016629     0.85300
O616        O  0.90644531  0.63548589  0.16131682    -0.56600
O617        O  0.95120159  0.63289515  0.14249411    -0.59900
In618      In  0.90455476  0.42936996  0.32454153     1.36900
C619        C  0.95194117  0.42608604  0.32632363     0.77800
O620        O  0.90073979  0.46259031  0.34730597    -0.60600
O621        O  0.87638521  0.45843257  0.31887157    -0.51600
C622        C  0.90279559  0.42653626  0.27763756     0.70500
O623        O  0.91777914  0.43876180  0.28925581    -0.46400
C624        C  0.89549798  0.39145044  0.35174026     0.75200
O625        O  0.93861882  0.40852590  0.32168685    -0.58300
O626        O  0.90353809  0.41101493  0.35976904    -0.48400
O627        O  0.94093457  0.44529473  0.33032839    -0.54700
C628        C  0.88460444  0.47214756  0.33490741     0.85300
O629        O  0.88740085  0.41609660  0.29019353    -0.56600
O630        O  0.88756266  0.39271211  0.33066891    -0.59900
In631      In  0.90194691  0.61776960  0.32452619     1.36900
C632        C  0.94795631  0.60908987  0.33048356     0.77800
O633        O  0.89661603  0.65758894  0.32465504    -0.60600
O634        O  0.88694479  0.63941311  0.35576044    -0.51600
C635        C  0.89727758  0.62501861  0.27792647     0.70500
O636        O  0.91550925  0.63130299  0.28961372    -0.46400
C637        C  0.88351774  0.57499721  0.33679944     0.75200
O638        O  0.93590883  0.59985425  0.31377605    -0.58300
O639        O  0.87410554  0.58823448  0.32112984    -0.48400
O640        O  0.93627467  0.62240655  0.34419195    -0.54700
C641        C  0.88995545  0.65940608  0.34581393     0.85300
O642        O  0.88101712  0.61570891  0.29025788    -0.56600
O643        O  0.90046021  0.58490120  0.34788786    -0.59900
In644      In  0.91820844  0.41973824  0.12937620     1.36900
C645        C  0.87300449  0.41220378  0.11521189     0.77800
O646        O  0.91048519  0.40143133  0.16391908    -0.60600
O647        O  0.92171615  0.43791165  0.16424946    -0.51600
C648        C  0.95830194  0.39639488  0.11810014     0.70500
O649        O  0.94623232  0.39105577  0.13609060    -0.46400
C650        C  0.92771303  0.46477325  0.11828707     0.75200
O651        O  0.89037202  0.40223730  0.10504734    -0.58300
O652        O  0.93742632  0.45364390  0.13520074    -0.48400
O653        O  0.87889740  0.42467736  0.13297795    -0.54700
C654        C  0.91513294  0.42004779  0.17610937     0.85300
O655        O  0.94779857  0.41062691  0.10417570    -0.56600
O656        O  0.91371251  0.45224227  0.10567111    -0.59900
In657      In  0.35423239  0.10362179  0.58512361     1.36900
C658        C  0.37126744  0.11896952  0.54333407     0.77800
O659        O  0.37219825  0.06798421  0.58801029    -0.60600
O660        O  0.33547549  0.06845244  0.57982887    -0.51600
C661        C  0.37470573  0.11034869  0.62811214     0.70500
O662        O  0.38368893  0.11874089  0.60931019    -0.46400
C663        C  0.30967494  0.11811298  0.58601465     0.75200
O664        O  0.37738258  0.09972967  0.55318314    -0.58300
O665        O  0.31691501  0.10196679  0.57216903    -0.48400
O666        O  0.35844087  0.13205506  0.55624223    -0.54700
C667        C  0.35363536  0.05598209  0.58382566     0.85300
O668        O  0.35484104  0.10049209  0.62476300    -0.56600
O669        O  0.32550526  0.12783283  0.59899625    -0.59900
In670      In  0.16041459  0.12047390  0.58336034     1.36900
C671        C  0.14580147  0.07888995  0.60278879     0.77800
O672        O  0.14520097  0.12853406  0.54699663    -0.60600
O673        O  0.16773962  0.09850064  0.55122862    -0.51600
C674        C  0.13802201  0.16175372  0.59448534     0.70500
O675        O  0.12757782  0.14188712  0.59218543    -0.46400
C676        C  0.20773832  0.12583645  0.58591931     0.75200
O677        O  0.13523981  0.08889644  0.58570626    -0.58300
O678        O  0.19573709  0.12871240  0.56706201    -0.48400
O679        O  0.16216116  0.09160380  0.61190067    -0.54700
C680        C  0.15525194  0.11093781  0.53729396     0.85300
O681        O  0.16024926  0.16003956  0.59381363    -0.56600
O682        O  0.19530925  0.12102224  0.60397257    -0.59900
In683      In  0.16525023  0.10458091  0.38941475     1.36900
C684        C  0.15114518  0.06170104  0.37218568     0.77800
O685        O  0.19942823  0.11059544  0.36802034    -0.60600
O686        O  0.20099489  0.10680561  0.40553165    -0.51600
C687        C  0.14508955  0.14730458  0.38022144     0.70500
O688        O  0.13549472  0.12786184  0.37358409    -0.46400
C689        C  0.15871487  0.09977435  0.43579060     0.75200
O690        O  0.14070034  0.07241804  0.38874914    -0.58300
O691        O  0.14524858  0.11208598  0.42263021    -0.48400
O692        O  0.16694239  0.07425831  0.36238174    -0.54700
C693        C  0.21237482  0.11018539  0.38667536     0.85300
O694        O  0.16558773  0.14461620  0.38877284    -0.56600
O695        O  0.17487789  0.08891331  0.42487700    -0.59900
In696      In  0.36069601  0.09781873  0.40014030     1.36900
C697        C  0.36367917  0.05122243  0.40853790     0.77800
O698        O  0.36267421  0.08852925  0.36134602    -0.60600
O699        O  0.38757831  0.11404983  0.37375203    -0.51600
C700        C  0.31465563  0.10866707  0.39543734     0.70500
O701        O  0.32228280  0.09068157  0.40655486    -0.46400
C702        C  0.37672094  0.11635682  0.44165368     0.75200
O703        O  0.34594631  0.06343546  0.41448785    -0.58300
O704        O  0.38628291  0.09884008  0.43148499    -0.48400
O705        O  0.38004021  0.06304408  0.39889270    -0.54700
C706        C  0.38018920  0.10151952  0.35627761     0.85300
O707        O  0.33067516  0.12164947  0.38650695    -0.56600
O708        O  0.36138826  0.12668794  0.42881827    -0.59900
In709      In  0.15345476  0.93418159  0.58306600     1.36900
C710        C  0.14847366  0.95057735  0.53884909     0.77800
O711        O  0.14459736  0.89883817  0.56683362    -0.60600
O712        O  0.12885690  0.90558855  0.60005054    -0.51600
C713        C  0.19707030  0.91956919  0.59382549     0.70500
O714        O  0.18994095  0.92381404  0.57288120    -0.46400
C715        C  0.14492900  0.97640985  0.60458140     0.75200
O716        O  0.16815136  0.95030496  0.54974718    -0.58300
O717        O  0.12853332  0.96343527  0.59590394    -0.48400
O718        O  0.13116299  0.94370892  0.55115093    -0.54700
C719        C  0.13143597  0.89094451  0.58291826     0.85300
O720        O  0.18168207  0.92277992  0.60980259    -0.56600
O721        O  0.16483710  0.96630091  0.60496102    -0.59900
In722      In  0.35513616  0.90084132  0.40671485     1.36900
C723        C  0.36676226  0.88726069  0.45137051     0.77800
O724        O  0.37355220  0.93488496  0.39605115    -0.60600
O725        O  0.34472605  0.93719361  0.41977754    -0.51600
C726        C  0.37944226  0.88761375  0.36796608     0.70500
O727        O  0.38878122  0.88918673  0.38846167    -0.46400
C728        C  0.30850650  0.89455786  0.39996419     0.75200
O729        O  0.37425436  0.90617345  0.44195834    -0.58300
O730        O  0.31971509  0.91298431  0.39361711    -0.48400
O731        O  0.35544153  0.87381781  0.43704524    -0.54700
C732        C  0.36049258  0.94821320  0.40837019     0.85300
O733        O  0.35716366  0.88860824  0.36803512    -0.56600
O734        O  0.32131943  0.87861282  0.40949409    -0.59900
In735      In  0.34440634  0.90568181  0.59622805     1.36900
C736        C  0.35060111  0.95280911  0.59098563     0.77800
O737        O  0.34576400  0.89822427  0.63569644    -0.60600
O738        O  0.37635126  0.88999333  0.61633842    -0.51600
C739        C  0.29730271  0.90185123  0.60052318     0.70500
O740        O  0.30934043  0.91926348  0.60844920    -0.46400
C741        C  0.35756607  0.88899715  0.55332530     0.75200
O742        O  0.33444439  0.94098119  0.58060087    -0.58300
O743        O  0.36663296  0.90697177  0.56358124    -0.48400
O744        O  0.36412858  0.94034754  0.60390114    -0.54700
C745        C  0.36723502  0.89224791  0.63663303     0.85300
O746        O  0.30955836  0.88536827  0.59126770    -0.56600
O747        O  0.34285600  0.87784090  0.56603070    -0.59900
In748      In  0.16164588  0.91844580  0.39776726     1.36900
C749        C  0.13836430  0.87626469  0.39569744     0.77800
O750        O  0.19380662  0.90803341  0.37605213    -0.60600
O751        O  0.19650481  0.90739305  0.41380521    -0.51600
C752        C  0.15297463  0.95917744  0.37383367     0.70500
O753        O  0.13665394  0.94589104  0.38158258    -0.46400
C754        C  0.15167635  0.93885310  0.43934792     0.75200
O755        O  0.14045917  0.88949177  0.37751560    -0.58300
O756        O  0.17207714  0.93908465  0.43031575    -0.48400
O757        O  0.14857422  0.88450079  0.41398827    -0.54700
C758        C  0.20687106  0.90449505  0.39419131     0.85300
O759        O  0.17325185  0.94989064  0.37528905    -0.56600
O760        O  0.13613736  0.92833642  0.42681290    -0.59900
In761      In  0.65436955  0.92288629  0.59790589     1.36900
C762        C  0.63366735  0.90978957  0.63924704     0.77800
O763        O  0.69138998  0.90667034  0.60096669    -0.60600
O764        O  0.68801562  0.94432334  0.60063549    -0.51600
C765        C  0.64251173  0.90254761  0.55576432     0.70500
O766        O  0.62896786  0.91634448  0.56701642    -0.46400
C767        C  0.64594924  0.96911633  0.59186197     0.75200
O768        O  0.62183522  0.91583562  0.62106215    -0.58300
O769        O  0.65051760  0.95521324  0.57483222    -0.48400
O770        O  0.65542398  0.90721023  0.63509098    -0.54700
C771        C  0.70186067  0.92675976  0.60126096     0.85300
O772        O  0.66038126  0.89608406  0.56786520    -0.56600
O773        O  0.64500249  0.95905351  0.61191007    -0.59900
In774      In  0.66138217  0.11264235  0.40359917     1.36900
C775        C  0.64295420  0.11424250  0.35880388     0.77800
O776        O  0.69224656  0.13406285  0.38961045    -0.60600
O777        O  0.69878676  0.10665626  0.41511451    -0.51600
C778        C  0.64673045  0.13480158  0.44371648     0.70500
O779        O  0.63702025  0.11648303  0.43484734    -0.46400
C780        C  0.65576539  0.06640878  0.41290831     0.75200
O781        O  0.63395809  0.12571695  0.37598135    -0.58300
O782        O  0.67561585  0.07677793  0.41409828    -0.48400
O783        O  0.66182589  0.10358329  0.36436964    -0.54700
C784        C  0.70740208  0.12255302  0.40181761     0.85300
O785        O  0.66199091  0.14404535  0.43027402    -0.56600
O786        O  0.63875268  0.07980031  0.40705744    -0.59900
In787      In  0.66111665  0.11773748  0.58673431     1.36900
C788        C  0.64504890  0.13617012  0.54511044     0.77800
O789        O  0.69453589  0.13924288  0.59573629    -0.60600
O790        O  0.69766540  0.10449758  0.58070777    -0.51600
C791        C  0.64391287  0.12602271  0.63015424     0.70500
O792        O  0.63289244  0.13246313  0.61145265    -0.46400
C793        C  0.65206492  0.07121613  0.58633394     0.75200
O794        O  0.63676946  0.11752443  0.55435630    -0.58300
O795        O  0.66764000  0.08050042  0.57328194    -0.48400
O796        O  0.65960431  0.14713579  0.55853975    -0.54700
C797        C  0.70824810  0.12277783  0.58882354     0.85300
O798        O  0.66459829  0.11861099  0.62638656    -0.56600
O799        O  0.64058737  0.08579535  0.59875685    -0.59900
In800      In  0.65836158  0.91709951  0.41003734     1.36900
C801        C  0.65151954  0.96386471  0.41561922     0.77800
O802        O  0.65965001  0.92109475  0.37033012    -0.60600
O803        O  0.63110229  0.90067191  0.38322772    -0.51600
C804        C  0.70523597  0.91149809  0.40697618     0.70500
O805        O  0.69554230  0.92940592  0.41647305    -0.46400
C806        C  0.64539683  0.89895890  0.45270952     0.75200
O807        O  0.66984206  0.95295417  0.42245581    -0.58300
O808        O  0.63389250  0.91465336  0.44149190    -0.48400
O809        O  0.63589093  0.95057694  0.40618017    -0.54700
C810        C  0.64081313  0.91000459  0.36521183     0.85300
O811        O  0.69084619  0.89570408  0.39923456    -0.56600
O812        O  0.66151273  0.88955749  0.44040041    -0.59900
In813      In  0.85636489  0.12009550  0.39260990     1.36900
C814        C  0.86765190  0.11337376  0.43817166     0.77800
O815        O  0.87927849  0.08752143  0.38759531    -0.60600
O816        O  0.85077617  0.09149190  0.36349183    -0.51600
C817        C  0.80940259  0.12480057  0.39235944     0.70500
O818        O  0.82175790  0.11919401  0.41035011    -0.46400
C819        C  0.87496390  0.16377535  0.38556109     0.75200
O820        O  0.87983437  0.12663180  0.42494590    -0.58300
O821        O  0.88539774  0.14490017  0.37890066    -0.48400
O822        O  0.85041572  0.10321696  0.42775493    -0.54700
C823        C  0.86676852  0.07786117  0.37151307     0.85300
O824        O  0.82128219  0.12820936  0.37360920    -0.56600
O825        O  0.85428272  0.16019672  0.39287468    -0.59900
In826      In  0.84982642  0.94336682  0.58538283     1.36900
C827        C  0.86418520  0.98381581  0.60715043     0.77800
O828        O  0.87232732  0.94679037  0.55270778    -0.60600
O829        O  0.83569241  0.95426600  0.54961170    -0.51600
C830        C  0.87092710  0.90089805  0.58892902     0.70500
O831        O  0.87693313  0.91829577  0.60225096    -0.46400
C832        C  0.80408339  0.93694186  0.59526927     0.75200
O833        O  0.87505933  0.97405615  0.59030626    -0.58300
O834        O  0.81170045  0.95221383  0.58067288    -0.48400
O835        O  0.84738793  0.97132134  0.61502874    -0.54700
C836        C  0.85537820  0.95284429  0.53929071     0.85300
O837        O  0.85356787  0.90512049  0.57530103    -0.56600
O838        O  0.82015103  0.92476648  0.60542210    -0.59900
In839      In  0.85854043  0.12405741  0.58492455     1.36900
C840        C  0.87282932  0.08461575  0.60762740     0.77800
O841        O  0.82464842  0.13108370  0.60544883    -0.60600
O842        O  0.82223604  0.11801659  0.56994446    -0.51600
C843        C  0.87468295  0.16929408  0.59020332     0.70500
O844        O  0.88527052  0.15176077  0.59968588    -0.46400
C845        C  0.86741556  0.11386757  0.53979046     0.75200
O846        O  0.85767413  0.09868830  0.61622530    -0.58300
O847        O  0.88128210  0.12639021  0.55255897    -0.48400
O848        O  0.88314681  0.09272900  0.58964888    -0.54700
C849        C  0.81130057  0.12426011  0.58838884     0.85300
O850        O  0.85563723  0.16355600  0.57974913    -0.56600
O851        O  0.84941227  0.10617547  0.55042246    -0.59900
In852      In  0.85236237  0.93353854  0.39415998     1.36900
C853        C  0.87614370  0.89166153  0.39109375     0.77800
O854        O  0.87302906  0.94033099  0.42741082    -0.60600
O855        O  0.83813676  0.95445650  0.42498226    -0.51600
C856        C  0.86466227  0.97493409  0.37253792     0.70500
O857        O  0.84489868  0.96474679  0.36924052    -0.46400
C858        C  0.80687431  0.91890869  0.39464195     0.75200
O859        O  0.87297011  0.90325808  0.40994323    -0.58300
O860        O  0.81967396  0.92267730  0.41275726    -0.48400
O861        O  0.86792137  0.90207291  0.37276343    -0.54700
C862        C  0.85646381  0.95130779  0.43770235     0.85300
O863        O  0.87926328  0.96214275  0.38381882    -0.56600
O864        O  0.81774554  0.92136694  0.37516286    -0.59900
C865        C  0.91300033  0.30939042  0.57329207     0.86700
C866        C  0.91085963  0.30603812  0.54622244    -0.53500
C867        C  0.92037541  0.28530194  0.53767910     0.09600
C868        C  0.93061971  0.26906178  0.55723480     0.20600
C869        C  0.90083483  0.28683633  0.58334195    -0.54300
C870        C  0.90987803  0.26574480  0.57487454     0.09700
C871        C  0.93948001  0.30555434  0.57921217    -0.53800
C872        C  0.94927577  0.28496696  0.57026545     0.10300
H873        H  0.90328501  0.31950559  0.53452159     0.14800
H874        H  0.93764582  0.25217457  0.54990385     0.00600
H875        H  0.88642429  0.28696191  0.59589595     0.15100
H876        H  0.94983973  0.31884768  0.58896782     0.14900
C877        C  0.09001640  0.25241092  0.57521695     0.86700
C878        C  0.10094224  0.27656457  0.58312937    -0.53500
C879        C  0.09211950  0.29653793  0.57169564     0.09600
C880        C  0.07182777  0.28964940  0.55346048     0.20600
C881        C  0.06354218  0.25621942  0.57984713    -0.54300
C882        C  0.05339798  0.27507269  0.56798597     0.09700
C883        C  0.09242804  0.25201514  0.54812567    -0.53800
C884        C  0.08301025  0.27119943  0.53655901     0.10300
H885        H  0.11285401  0.27746395  0.59817035     0.14800
H886        H  0.06365293  0.30423951  0.54314850     0.00600
H887        H  0.05357149  0.24488596  0.59176356     0.15100
H888        H  0.10053724  0.23716454  0.53867237     0.14900
C889        C  0.09742771  0.23899682  0.39805377     0.86700
C890        C  0.07044359  0.24091938  0.39246104    -0.53500
C891        C  0.06014178  0.26127688  0.40094811     0.09600
C892        C  0.07746245  0.27825608  0.41391990     0.20600
C893        C  0.10784502  0.26216263  0.38775268    -0.54300
C894        C  0.09732366  0.28287455  0.39547328     0.09700
C895        C  0.09897132  0.24232593  0.42520813    -0.53800
C896        C  0.08827627  0.26245626  0.43373311     0.10300
H897        H  0.05955874  0.22732751  0.38397939     0.14800
H898        H  0.06866809  0.29464232  0.42073155     0.00600
H899        H  0.12227066  0.26195021  0.37518055     0.15100
H900        H  0.10703535  0.22914026  0.43687462     0.14900
C901        C  0.92408608  0.30052801  0.39623595     0.86700
C902        C  0.91178187  0.27683942  0.38873826    -0.53500
C903        C  0.91967142  0.25694201  0.40073340     0.09600
C904        C  0.93931421  0.26261528  0.41934837     0.20600
C905        C  0.92078462  0.30169957  0.42327254    -0.54300
C906        C  0.92896746  0.28220611  0.43541432     0.09700
C907        C  0.95050527  0.29490436  0.39277978    -0.53800
C908        C  0.95875543  0.27556531  0.40529254     0.10300
H909        H  0.89847236  0.27528922  0.37477882     0.14800
H910        H  0.94548601  0.24677238  0.42934740     0.00600
H911        H  0.91295275  0.31703630  0.43215588     0.15100
H912        H  0.96178936  0.30520462  0.38113049     0.14900
C913        C  0.02293649  0.26410737  0.42387056    -0.12100
C914        C  0.03406623  0.26421218  0.40168435     0.05000
C915        C  0.02007980  0.26573875  0.38083843    -0.07300
C916        C  0.99549695  0.26839672  0.38253394    -0.08100
C917        C  0.98423032  0.26867277  0.40473100    -0.02600
C918        C  0.99816970  0.26535934  0.42562007     0.04200
N919        N  0.98781121  0.26291790  0.44864774     0.66700
H920        H  0.03353580  0.26253370  0.43997748     0.15600
H921        H  0.98511749  0.27055174  0.36630527     0.15300
N922        N  0.03058981  0.26560071  0.35782271     0.74400
O923        O  0.98133342  0.24233523  0.45519240    -0.39100
O924        O  0.99254501  0.27839832  0.46445940    -0.39000
O925        O  0.02939811  0.24678277  0.34532959    -0.39700
O926        O  0.03500664  0.28529721  0.34784654    -0.39800
C927        C  0.07284644  0.25076620  0.49858755    -0.12100
C928        C  0.08137896  0.27148855  0.50999059     0.05000
C929        C  0.08983834  0.29051389  0.49585060    -0.07300
C930        C  0.09107579  0.28771676  0.47087920    -0.08100
C931        C  0.08419823  0.26613258  0.45975935    -0.02600
C932        C  0.07421604  0.24783285  0.47392116     0.04200
N933        N  0.06534121  0.22600437  0.46372284     0.66700
H934        H  0.06560381  0.23626936  0.50907872     0.15600
H935        H  0.09845423  0.30204144  0.46028064     0.15300
N936        N  0.09860967  0.31210071  0.50653896     0.74400
O937        O  0.07826922  0.20760608  0.46447685    -0.39100
O938        O  0.04319149  0.22328825  0.46146574    -0.39000
O939        O  0.12061380  0.31442413  0.51031985    -0.39700
O940        O  0.08562339  0.33046908  0.50656501    -0.39800
C941        C  0.99044088  0.30214992  0.56697875    -0.12100
C942        C  0.97590513  0.28167902  0.56920543     0.05000
C943        C  0.98737769  0.25916306  0.56986393    -0.07300
C944        C  0.01221878  0.25780673  0.56860744    -0.08100
C945        C  0.02676813  0.27834159  0.56757578    -0.02600
C946        C  0.01533444  0.30080658  0.56653924     0.04200
N947        N  0.02835415  0.32271666  0.56597368     0.66700
H948        H  0.98253860  0.31970426  0.56561971     0.15600
H949        H  0.02014383  0.24016633  0.56873763     0.15300
N950        N  0.97472939  0.23736485  0.57358937     0.74400
O951        O  0.02812565  0.33470677  0.54695231    -0.39100
O952        O  0.03281904  0.33333412  0.58542108    -0.39000
O953        O  0.97062702  0.22392255  0.55586360    -0.39700
O954        O  0.97609298  0.22798485  0.59398225    -0.39800
C955        C  0.93569678  0.30112885  0.49995311    -0.12100
C956        C  0.92473630  0.28215009  0.51183029     0.05000
C957        C  0.91737414  0.26180793  0.49863341    -0.07300
C958        C  0.91982529  0.26156096  0.47370546    -0.08100
C959        C  0.92948900  0.28133160  0.46181301    -0.02600
C960        C  0.93813485  0.30096361  0.47527182     0.04200
N961        N  0.94887556  0.32124433  0.46414268     0.66700
H962        H  0.94221678  0.31646829  0.50998653     0.15600
H963        H  0.91316550  0.24637207  0.46353108     0.15300
N964        N  0.90600306  0.24204201  0.50989875     0.74400
O965        O  0.94166631  0.34206104  0.46898508    -0.39100
O966        O  0.96607370  0.31854198  0.45018226    -0.39000
O967        O  0.88371618  0.24020567  0.50848471    -0.39700
O968        O  0.91807933  0.22374326  0.51501586    -0.39800
C969        C  0.91526446  0.22440745  0.59056646    -0.12100
C970        C  0.90001319  0.24186038  0.58131713     0.05000
C971        C  0.87590419  0.23589049  0.57764534    -0.07300
C972        C  0.86803848  0.21245322  0.58182209    -0.08100
C973        C  0.88363361  0.19447617  0.58982317    -0.02600
C974        C  0.90748105  0.20089846  0.59481610     0.04200
N975        N  0.92436915  0.18374307  0.60311526     0.66700
H976        H  0.93340568  0.22910389  0.59446525     0.15600
H977        H  0.84959595  0.20817856  0.57807063     0.15300
N978        N  0.85930068  0.25302172  0.56868775     0.74400
O979        O  0.93807134  0.17405710  0.58830940    -0.39100
O980        O  0.92995024  0.18352263  0.62495702    -0.39000
O981        O  0.85359219  0.25248091  0.54689139    -0.39700
O982        O  0.84597399  0.26374830  0.58312851    -0.39800
C983        C  0.89047180  0.01946712  0.60642094    -0.12100
C984        C  0.86952964  0.00882089  0.61470797     0.05000
C985        C  0.85248289  0.02355282  0.62577894    -0.07300
C986        C  0.85571367  0.04848232  0.62629440    -0.08100
C987        C  0.87521340  0.05926672  0.61517323    -0.02600
C988        C  0.89336416  0.04438751  0.60631775     0.04200
N989        N  0.91405412  0.05420200  0.59551529     0.66700
H990        H  0.90397892  0.00851108  0.59819839     0.15600
H991        H  0.84147889  0.05950439  0.63307131     0.15300
N992        N  0.83040474  0.01403679  0.63375068     0.74400
O993        O  0.93259021  0.05710464  0.60803250    -0.39100
O994        O  0.91564337  0.05403455  0.57309500    -0.39000
O995        O  0.82722139  0.01128124  0.65578741    -0.39700
O996        O  0.81265790  0.01423428  0.61981979    -0.39800
C997        C  0.83826434  0.96593383  0.50067831    -0.12100
C998        C  0.85785126  0.95700735  0.51346336     0.05000
C999        C  0.87851119  0.95062675  0.50093600    -0.07300
C1000       C  0.87824316  0.95085253  0.47606923    -0.08100
C1001       C  0.85780988  0.95749719  0.46325363    -0.02600
C1002       C  0.83812499  0.96644891  0.47578566     0.04200
N1003       N  0.81750869  0.97527211  0.46368288     0.66700
H1004       H  0.82253974  0.97175023  0.50999028     0.15600
H1005       H  0.89378141  0.94447461  0.46679717     0.15300
N1006       N  0.89952007  0.94264821  0.51293417     0.74400
O1007       O  0.79955483  0.96187760  0.46133913    -0.39100
O1008       O  0.81519753  0.99755997  0.46089889    -0.39000
O1009       O  0.90345705  0.92047014  0.51449961    -0.39700
O1010       O  0.91648299  0.95718452  0.51599987    -0.39800
C1011       C  0.88430371  0.23097145  0.39342206    -0.12100
C1012       C  0.90901812  0.23267018  0.39644759     0.05000
C1013       C  0.92258564  0.21141819  0.39497341    -0.07300
C1014       C  0.91127712  0.18934823  0.39021462    -0.08100
C1015       C  0.88651800  0.18777810  0.38717860    -0.02600
C1016       C  0.87304751  0.20900686  0.38893867     0.04200
N1017       N  0.84783309  0.20874908  0.38603211     0.66700
H1018       H  0.87343144  0.24687659  0.39486283     0.15600
H1019       H  0.92192630  0.17323873  0.38948994     0.15300
N1020       N  0.94783199  0.21181421  0.39767106     0.74400
O1021       O  0.83493257  0.20928739  0.40426050    -0.39100
O1022       O  0.83890131  0.21401909  0.36601844    -0.39000
O1023       O  0.95715751  0.20330257  0.41634752    -0.39700
O1024       O  0.96047378  0.21464215  0.37948174    -0.39800
C1025       C  0.85808046  0.09375018  0.47601963    -0.12100
C1026       C  0.87188683  0.11062868  0.46398149     0.05000
C1027       C  0.88708841  0.12593403  0.47727909    -0.07300
C1028       C  0.88664909  0.12535017  0.50217300    -0.08100
C1029       C  0.87106936  0.11002782  0.51412477    -0.02600
C1030       C  0.85741245  0.09337377  0.50080849     0.04200
N1031       N  0.84166489  0.07686314  0.51191246     0.66700
H1032       H  0.84665741  0.08148077  0.46616224     0.15600
H1033       H  0.89747042  0.13809367  0.51210887     0.15300
N1034       N  0.90182147  0.14331154  0.46605011     0.74400
O1035       O  0.81979396  0.08151298  0.51193800    -0.39100
O1036       O  0.84823171  0.05547716  0.51477535    -0.39000
O1037       O  0.89512462  0.16484812  0.46536346    -0.39700
O1038       O  0.92344499  0.13857988  0.46292849    -0.39800
C1039       C  0.88818334  0.03904507  0.37563848    -0.12100
C1040       C  0.86928981  0.05185630  0.36527447     0.05000
C1041       C  0.85136653  0.03865377  0.35311400    -0.07300
C1042       C  0.85135005  0.01342363  0.35386887    -0.08100
C1043       C  0.86901196  0.00068921  0.36637409    -0.02600
C1044       C  0.88828074  0.01388408  0.37626403     0.04200
N1045       N  0.90724713  0.00229744  0.38873050     0.66700
H1046       H  0.90239751  0.04861964  0.38475707     0.15600
H1047       H  0.83655001  0.00382642  0.34579869     0.15300
N1048       N  0.83215898  0.05040746  0.34122015     0.74400
O1049       O  0.92614735  0.99771878  0.37779096    -0.39100
O1050       O  0.90747852  0.00240757  0.41122527    -0.39000
O1051       O  0.83243950  0.05215845  0.31881253    -0.39700
O1052       O  0.81286212  0.05337807  0.35201451    -0.39800
C1053       C  0.74135930  0.90276176  0.38292074    -0.12100
C1054       C  0.73135947  0.91008601  0.40459546     0.05000
C1055       C  0.74651433  0.91855771  0.42293640    -0.07300
C1056       C  0.77091740  0.91996412  0.41927992    -0.08100
C1057       C  0.78101485  0.91398995  0.39726096    -0.02600
C1058       C  0.76595143  0.90497375  0.37896843     0.04200
N1059       N  0.77510206  0.89822113  0.35630619     0.66700
H1060       H  0.72991077  0.89639263  0.36857859     0.15600
H1061       H  0.78194406  0.92673531  0.43374523     0.15300
N1062       N  0.73745910  0.92611710  0.44543433     0.74400
O1063       O  0.77915007  0.87640108  0.35211722    -0.39100
O1064       O  0.77318208  0.91256737  0.33908347    -0.39000
O1065       O  0.73788077  0.91169167  0.46267900    -0.39700
O1066       O  0.73526092  0.94822580  0.44959791    -0.39800
C1067       C  0.74698445  0.10823520  0.57487046    -0.12100
C1068       C  0.73459574  0.12411647  0.58952644     0.05000
C1069       C  0.74772215  0.13977982  0.60458878    -0.07300
C1070       C  0.77272321  0.13929576  0.60448912    -0.08100
C1071       C  0.78498496  0.12354160  0.58944879    -0.02600
C1072       C  0.77172212  0.10775153  0.57471470     0.04200
N1073       N  0.78296035  0.09070119  0.55959682     0.66700
H1074       H  0.73739075  0.09588213  0.56329733     0.15600
H1075       H  0.78255431  0.15151031  0.61599233     0.15300
N1076       N  0.73610572  0.15569286  0.62061773     0.74400
O1077       O  0.78827624  0.07040955  0.56787796    -0.39100
O1078       O  0.78115882  0.09326771  0.53733500    -0.39000
O1079       O  0.73361183  0.14956219  0.64206329    -0.39700
O1080       O  0.73382673  0.17744024  0.61505144    -0.39800
C1081       C  0.66846292  0.00220594  0.42950967    -0.12100
C1082       C  0.64976180  0.99015334  0.41781279     0.05000
C1083       C  0.63137040  0.00367505  0.40716887    -0.07300
C1084       C  0.63309843  0.02869699  0.40678250    -0.08100
C1085       C  0.65281529  0.04052701  0.41691369    -0.02600
C1086       C  0.67011738  0.02708661  0.42921825     0.04200
N1087       N  0.68946524  0.03832334  0.44163172     0.66700
H1088       H  0.68239872  0.99226314  0.43849225     0.15600
H1089       H  0.61940876  0.03882005  0.39762319     0.15300
N1090       N  0.61124787  0.99246963  0.39606578     0.74400
O1091       O  0.68734060  0.04322004  0.46347721    -0.39100
O1092       O  0.70991174  0.03772241  0.43271746    -0.39000
O1093       O  0.59202735  0.99128630  0.40732648    -0.39700
O1094       O  0.61092126  0.98955783  0.37375026    -0.39800
C1095       C  0.62336437  0.13140178  0.48094312    -0.12100
C1096       C  0.64220926  0.14235425  0.46888098     0.05000
C1097       C  0.65857060  0.15624306  0.48244142    -0.07300
C1098       C  0.65765077  0.15613047  0.50751834    -0.08100
C1099       C  0.64058156  0.14252278  0.51958990    -0.02600
C1100       C  0.62232534  0.13147136  0.50593180     0.04200
N1101       N  0.60301976  0.11941922  0.51705736     0.66700
H1102       H  0.61006364  0.12132446  0.47099877     0.15600
H1103       H  0.67161707  0.16516048  0.51753506     0.15300
N1104       N  0.67754447  0.16880317  0.47135174     0.74400
O1105       O  0.58366208  0.13038927  0.51959743    -0.39100
O1106       O  0.60322834  0.09686913  0.51843154    -0.39000
O1107       O  0.67571525  0.19108111  0.46818673    -0.39700
O1108       O  0.69780718  0.15932069  0.47083875    -0.39800
C1109       C  0.74318321  0.13232514  0.37796615    -0.12100
C1110       C  0.73330516  0.12625961  0.40000981     0.05000
C1111       C  0.74859638  0.12145321  0.41943686    -0.07300
C1112       C  0.77309336  0.12177762  0.41634995    -0.08100
C1113       C  0.78317061  0.12663733  0.39409813    -0.02600
C1114       C  0.76791123  0.13243541  0.37479666     0.04200
N1115       N  0.77699336  0.13785863  0.35178803     0.66700
H1116       H  0.73165248  0.13598810  0.36283207     0.15600
H1117       H  0.78428153  0.11779780  0.43165777     0.15300
N1118       N  0.73965783  0.11666712  0.44266520     0.74400
O1119       O  0.77758680  0.12156143  0.33615779    -0.39100
O1120       O  0.77840010  0.15945514  0.34541251    -0.39000
O1121       O  0.74019355  0.09550741  0.45045644    -0.39700
O1122       O  0.73792540  0.13378172  0.45727533    -0.39800
C1123       C  0.64050460  0.00911579  0.60969015    -0.12100
C1124       C  0.64408680  0.99523190  0.58916674     0.05000
C1125       C  0.64839859  0.00677282  0.56725578    -0.07300
C1126       C  0.65051294  0.03167583  0.56663049    -0.08100
C1127       C  0.64795393  0.04535253  0.58737481    -0.02600
C1128       C  0.64238447  0.03398834  0.60899224     0.04200
N1129       N  0.64051914  0.04719342  0.63077620     0.66700
H1130       H  0.63723780  0.00062645  0.62668142     0.15600
H1131       H  0.65442673  0.04035455  0.54987554     0.15300
N1132       N  0.65118321  0.99360760  0.54558198     0.74400
O1133       O  0.62025405  0.05166412  0.63899235    -0.39100
O1134       O  0.65852027  0.04926732  0.64422462    -0.39000
O1135       O  0.63406938  0.99250971  0.53092140    -0.39700
O1136       O  0.67176290  0.98833692  0.53870085    -0.39800
C1137       C  0.65593356  0.88209648  0.51830727    -0.12100
C1138       C  0.63939501  0.89693589  0.52973802     0.05000
C1139       C  0.62270640  0.90925785  0.51529308    -0.07300
C1140       C  0.62392050  0.90785118  0.49033700    -0.08100
C1141       C  0.64163180  0.89457904  0.47881965    -0.02600
C1142       C  0.65724424  0.88082808  0.49322977     0.04200
N1143       N  0.67544674  0.86650975  0.48294959     0.66700
H1144       H  0.66892165  0.87241344  0.52886692     0.15600
H1145       H  0.61161991  0.91852884  0.47991193     0.15300
N1146       N  0.60551906  0.92491481  0.52545714     0.74400
O1147       O  0.69586993  0.87540473  0.48041194    -0.39100
O1148       O  0.67301639  0.84403638  0.48265851    -0.39000
O1149       O  0.60909124  0.94722805  0.52511964    -0.39700
O1150       O  0.58488904  0.91712061  0.52931202    -0.39800
C1151       C  0.74282144  0.91053379  0.60807276    -0.12100
C1152       C  0.72810661  0.92979221  0.60165129     0.05000
C1153       C  0.73884458  0.95169481  0.59503070    -0.07300
C1154       C  0.76352963  0.95354914  0.59395027    -0.08100
C1155       C  0.77826002  0.93414448  0.59954834    -0.02600
C1156       C  0.76770657  0.91259033  0.60733550     0.04200
N1157       N  0.78180676  0.89232796  0.61364048     0.66700
H1158       H  0.73499197  0.89369324  0.61348778     0.15600
H1159       H  0.77121485  0.97034501  0.58816912     0.15300
N1160       N  0.72505396  0.97200111  0.58809301     0.74400
O1161       O  0.78659742  0.88857253  0.63532447    -0.39100
O1162       O  0.78424882  0.87555015  0.59874175    -0.39000
O1163       O  0.72290706  0.98929384  0.60245490    -0.39700
O1164       O  0.72025540  0.97512717  0.56630943    -0.39800
C1165       C  0.27202279  0.90492076  0.37731441    -0.12100
C1166       C  0.28241447  0.89275972  0.39659981     0.05000
C1167       C  0.26747652  0.88164953  0.41330689    -0.07300
C1168       C  0.24280228  0.88507041  0.41178859    -0.08100
C1169       C  0.23249247  0.89834198  0.39311851    -0.02600
C1170       C  0.24735213  0.90728801  0.37511740     0.04200
N1171       N  0.23791168  0.91996854  0.35512529     0.66700
H1172       H  0.28319528  0.91313987  0.36402107     0.15600
H1173       H  0.23165150  0.87756458  0.42549952     0.15300
N1174       N  0.27700571  0.86767019  0.43239750     0.74400
O1175       O  0.23880017  0.94254777  0.35504983    -0.39100
O1176       O  0.23470902  0.90889615  0.33569616    -0.39000
O1177       O  0.27826462  0.87654485  0.45309357    -0.39700
O1178       O  0.27870199  0.84528477  0.42976772    -0.39800
C1179       C  0.35146351  0.86830842  0.48841894    -0.12100
C1180       C  0.36859161  0.88286888  0.47754412     0.05000
C1181       C  0.38438436  0.89603062  0.49238491    -0.07300
C1182       C  0.38146413  0.89606154  0.51714328    -0.08100
C1183       C  0.36294973  0.88332115  0.52791678    -0.02600
C1184       C  0.34848107  0.86842127  0.51330752     0.04200
N1185       N  0.32960513  0.85459501  0.52304589     0.66700
H1186       H  0.33916043  0.85799717  0.47746383     0.15600
H1187       H  0.39322105  0.90718384  0.52791550     0.15300
N1188       N  0.40314355  0.91009846  0.48271191     0.74400
O1189       O  0.30865334  0.86234001  0.52137375    -0.39100
O1190       O  0.33290623  0.83262796  0.52702730    -0.39000
O1191       O  0.40086744  0.93255418  0.48176095    -0.39700
O1192       O  0.42365100  0.90117822  0.48164097    -0.39800
C1193       C  0.23247369  0.89657692  0.58181843    -0.12100
C1194       C  0.22169658  0.91165431  0.59854306     0.05000
C1195       C  0.23540491  0.92060237  0.61777497    -0.07300
C1196       C  0.25984593  0.91593809  0.61883223    -0.08100
C1197       C  0.27095967  0.90199223  0.60128528    -0.02600
C1198       C  0.25676582  0.89139936  0.58318631     0.04200
N1199       N  0.26689552  0.87700101  0.56487720     0.66700
H1200       H  0.22208693  0.88934246  0.56706279     0.15600
H1201       H  0.27038178  0.92415550  0.63294963     0.15300
N1202       N  0.22533358  0.93617687  0.63516493     0.74400
O1203       O  0.26613631  0.85450084  0.56676809    -0.39100
O1204       O  0.27023617  0.88613262  0.54466093    -0.39000
O1205       O  0.22109466  0.92822388  0.65569775    -0.39700
O1206       O  0.22609564  0.95850973  0.63194881    -0.39800
C1207       C  0.12599739  0.94722068  0.50079950    -0.12100
C1208       C  0.14625951  0.95556802  0.51306627     0.05000
C1209       C  0.16554045  0.96426412  0.49978836    -0.07300
C1210       C  0.16594491  0.96056111  0.47518015    -0.08100
C1211       C  0.14723525  0.94867502  0.46339201    -0.02600
C1212       C  0.12621292  0.94392509  0.47605942     0.04200
N1213       N  0.10554076  0.93424074  0.46458333     0.66700
H1214       H  0.11056142  0.94136135  0.51056511     0.15600
H1215       H  0.18169176  0.96574174  0.46553630     0.15300
N1216       N  0.18529311  0.97599663  0.51099078     0.74400
O1217       O  0.10184684  0.91198800  0.46546057    -0.39100
O1218       O  0.08841586  0.94798931  0.45982479    -0.39000
O1219       O  0.20435636  0.96457405  0.51409023    -0.39700
O1220       O  0.18579634  0.99859128  0.51150814    -0.39800
C1221       C  0.35014824  0.98728669  0.42652661    -0.12100
C1222       C  0.36313543  0.97452445  0.40947219     0.05000
C1223       C  0.37779521  0.98728820  0.39365294    -0.07300
C1224       C  0.37856027  0.01225316  0.39469189    -0.08100
C1225       C  0.36465422  0.02500404  0.41089732    -0.02600
C1226       C  0.35071373  0.01231076  0.42734562     0.04200
N1227       N  0.33724638  0.02440412  0.44513667     0.66700
H1228       H  0.33916152  0.97783189  0.43914536     0.15600
H1229       H  0.38928542  0.02174059  0.38186244     0.15300
N1230       N  0.39099100  0.97546314  0.37549993     0.74400
O1231       O  0.31544318  0.02813247  0.44143299    -0.39100
O1232       O  0.34534799  0.02559176  0.46617338    -0.39000
O1233       O  0.38255161  0.97456522  0.35458302    -0.39700
O1234       O  0.41288545  0.97191451  0.37876947    -0.39800
C1235       C  0.14599883  0.19092397  0.38955763    -0.12100
C1236       C  0.13321418  0.17119757  0.38045131     0.05000
C1237       C  0.10895759  0.17437140  0.37495628    -0.07300
C1238       C  0.09796193  0.19646968  0.37939852    -0.08100
C1239       C  0.11031857  0.21593692  0.39002301    -0.02600
C1240       C  0.13497678  0.21284151  0.39457196     0.04200
N1241       N  0.14912341  0.23139470  0.40526958     0.66700
H1242       H  0.16467314  0.18908542  0.39398546     0.15600
H1243       H  0.07935652  0.19740760  0.37512219     0.15300
N1244       N  0.09468828  0.15504187  0.36609074     0.74400
O1245       O  0.15298985  0.23093360  0.42746233    -0.39100
O1246       O  0.16292369  0.24332388  0.39229805    -0.39000
O1247       O  0.08191113  0.14352420  0.38041233    -0.39700
O1248       O  0.09007691  0.15386185  0.34406059    -0.39800
C1249       C  0.16541047  0.02334769  0.35486076    -0.12100
C1250       C  0.14748038  0.03569152  0.36694157     0.05000
C1251       C  0.12891363  0.02213025  0.37714869    -0.07300
C1252       C  0.12986853  0.99696902  0.37693916    -0.08100
C1253       C  0.14919442  0.98472223  0.36707553    -0.02600
C1254       C  0.16654070  0.99822772  0.35499169     0.04200
N1255       N  0.18601144  0.98688297  0.34350393     0.66700
H1256       H  0.17969269  0.03323185  0.34661693     0.15600
H1257       H  0.11622570  0.98707257  0.38618922     0.15300
N1258       N  0.10945513  0.03344915  0.38875123     0.74400
O1259       O  0.18448599  0.98251506  0.32145851    -0.39100
O1260       O  0.20622122  0.98744140  0.35341359    -0.39000
O1261       O  0.09006998  0.03573624  0.37752300    -0.39700
O1262       O  0.10958041  0.03503793  0.41119687    -0.39800
C1263       C  0.24963368  0.11167673  0.41032173    -0.12100
C1264       C  0.23873498  0.11286719  0.38767609     0.05000
C1265       C  0.25338897  0.11592365  0.36757897    -0.07300
C1266       C  0.27831051  0.11616004  0.37047158    -0.08100
C1267       C  0.28889398  0.11332501  0.39308261    -0.02600
C1268       C  0.27424973  0.11180540  0.41314963     0.04200
N1269       N  0.28409622  0.11059627  0.43670269     0.66700
H1270       H  0.23900972  0.11015232  0.42621548     0.15600
H1271       H  0.28940248  0.11737276  0.35487176     0.15300
N1272       N  0.24349326  0.11827175  0.34416933     0.74400
O1273       O  0.28786251  0.12980065  0.44808962    -0.39100
O1274       O  0.28316284  0.09109339  0.44793527    -0.39000
O1275       O  0.24356009  0.13854903  0.33432356    -0.39700
O1276       O  0.24043206  0.09976829  0.33150317    -0.39800
C1277       C  0.12439770  0.22887494  0.59413857    -0.12100
C1278       C  0.10067023  0.22916227  0.58574186     0.05000
C1279       C  0.08906519  0.20657539  0.58293549    -0.07300
C1280       C  0.10109789  0.18520451  0.58803347    -0.08100
C1281       C  0.12504160  0.18507213  0.59505165    -0.02600
C1282       C  0.13648559  0.20734518  0.59879404     0.04200
N1283       N  0.16073378  0.20860229  0.60639255     0.66700
H1284       H  0.13452421  0.24526438  0.59570281     0.15600
H1285       H  0.09191042  0.16840194  0.58477117     0.15300
N1286       N  0.06547556  0.20456605  0.57346719     0.74400
O1287       O  0.17660477  0.21228602  0.59114370    -0.39100
O1288       O  0.16543204  0.21226931  0.62814664    -0.39000
O1289       O  0.06257631  0.20118568  0.55137323    -0.39700
O1290       O  0.04884931  0.19915542  0.58735610    -0.39800
C1291       C  0.15950997  0.04096131  0.62164559    -0.12100
C1292       C  0.14153779  0.05330668  0.60932010     0.05000
C1293       C  0.12217910  0.03986857  0.59994695    -0.07300
C1294       C  0.12249125  0.01469657  0.60081204    -0.08100
C1295       C  0.14188711  0.00230313  0.61067202    -0.02600
C1296       C  0.15993425  0.01580898  0.62230485     0.04200
N1297       N  0.17960430  0.00439973  0.63375635     0.66700
H1298       H  0.17438363  0.05076725  0.62931876     0.15600
H1299       H  0.10821391  0.00483829  0.59211110     0.15300
N1300       N  0.10248339  0.05131733  0.58855046     0.74400
O1301       O  0.19884654  0.00235299  0.62266633    -0.39100
O1302       O  0.17974421  0.00243799  0.65615148    -0.39000
O1303       O  0.10135707  0.05181103  0.56608276    -0.39700
O1304       O  0.08391078  0.05502230  0.60034331    -0.39800
C1305       C  0.17205258  0.09198364  0.50160923    -0.12100
C1306       C  0.15392249  0.10577866  0.51160205     0.05000
C1307       C  0.13609803  0.11533164  0.49664353    -0.07300
C1308       C  0.13738509  0.11193171  0.47204331    -0.08100
C1309       C  0.15638567  0.09947194  0.46189823    -0.02600
C1310       C  0.17364042  0.08896724  0.47700182     0.04200
N1311       N  0.19375666  0.07659436  0.46780798     0.66700
H1312       H  0.18591846  0.08451778  0.51285499     0.15600
H1313       H  0.12379422  0.11986181  0.46078957     0.15300
N1314       N  0.11670512  0.12870012  0.50597734     0.74400
O1315       O  0.21254508  0.08820814  0.46386389    -0.39100
O1316       O  0.19477294  0.05410468  0.46966088    -0.39000
O1317       O  0.11709320  0.15125577  0.50469142    -0.39700
O1318       O  0.09723424  0.11817349  0.50956981    -0.39800
C1319       C  0.24657199  0.12107210  0.60763523    -0.12100
C1320       C  0.23421144  0.12703287  0.58650872     0.05000
C1321       C  0.24756337  0.13238081  0.56588158    -0.07300
C1322       C  0.27233173  0.13062643  0.56648893    -0.08100
C1323       C  0.28434840  0.12398558  0.58730798    -0.02600
C1324       C  0.27145267  0.11950585  0.60812140     0.04200
N1325       N  0.28330248  0.11119382  0.62916836     0.66700
H1326       H  0.23687517  0.11665452  0.62359290     0.15600
H1327       H  0.28222307  0.13380623  0.55033644     0.15300
N1328       N  0.23641140  0.13883176  0.54384698     0.74400
O1329       O  0.29225071  0.12616520  0.64360921    -0.39100
O1330       O  0.28899152  0.08940688  0.63075137    -0.39000
O1331       O  0.23595342  0.16059807  0.53790785    -0.39700
O1332       O  0.23324430  0.12295353  0.52804282    -0.39800
C1333       C  0.37207967  0.01748165  0.59555729    -0.12100
C1334       C  0.35322893  0.02954722  0.58435545     0.05000
C1335       C  0.33412734  0.01610360  0.57474936    -0.07300
C1336       C  0.33411218  0.99119286  0.57671841    -0.08100
C1337       C  0.35263103  0.97910162  0.58844887    -0.02600
C1338       C  0.37189556  0.99253005  0.59785518     0.04200
N1339       N  0.39134612  0.98133207  0.60991455     0.66700
H1340       H  0.38687425  0.02749951  0.60312134     0.15600
H1341       H  0.31915236  0.98130794  0.56932059     0.15300
N1342       N  0.31456319  0.02731469  0.56288377     0.74400
O1343       O  0.41037283  0.97783934  0.59880106    -0.39100
O1344       O  0.39170167  0.98094053  0.63240139    -0.39000
O1345       O  0.31430206  0.02835759  0.54042331    -0.39700
O1346       O  0.29551382  0.03051852  0.57404757    -0.39800
C1347       C  0.39413577  0.10955533  0.50692134    -0.12100
C1348       C  0.37701678  0.12392377  0.51795288     0.05000
C1349       C  0.36325163  0.13939275  0.50350876    -0.07300
C1350       C  0.36523149  0.13840929  0.47855629    -0.08100
C1351       C  0.38060820  0.12212779  0.46743161    -0.02600
C1352       C  0.39606324  0.10847951  0.48205134     0.04200
N1353       N  0.41280261  0.09218856  0.47210612     0.66700
H1354       H  0.40520986  0.09782971  0.51760973     0.15600
H1355       H  0.35326460  0.14917588  0.46783605     0.15300
N1356       N  0.34562258  0.15460454  0.51355695     0.74400
O1357       O  0.43417916  0.09866871  0.47036253    -0.39100
O1358       O  0.40778894  0.07015398  0.47117244    -0.39000
O1359       O  0.34983347  0.17672967  0.51560058    -0.39700
O1360       O  0.32448219  0.14722060  0.51475626    -0.39800
C1361       C  0.91947286  0.36765641  0.37974209    -0.12100
C1362       C  0.89964640  0.36850123  0.36455445     0.05000
C1363       C  0.88741791  0.34695887  0.35958201    -0.07300
C1364       C  0.89542822  0.32523596  0.36954402    -0.08100
C1365       C  0.91596258  0.32414137  0.38430831    -0.02600
C1366       C  0.92781788  0.34619320  0.38938107     0.04200
N1367       N  0.94858442  0.34762335  0.40423144     0.66700
H1368       H  0.92953023  0.38385987  0.38346818     0.15600
H1369       H  0.88487657  0.30951286  0.36584054     0.15300
N1370       N  0.86627535  0.34684741  0.34529863     0.74400
O1371       O  0.96862023  0.34588861  0.39456908    -0.39100
O1372       O  0.94725587  0.35938967  0.42339858    -0.39000
O1373       O  0.86672238  0.33787810  0.32463142    -0.39700
O1374       O  0.84654752  0.34994054  0.35525477    -0.39800
C1375       C  0.91964224  0.44085038  0.24011018    -0.12100
C1376       C  0.90432851  0.42478423  0.25147577     0.05000
C1377       C  0.89269515  0.40691104  0.23780237    -0.07300
C1378       C  0.89683267  0.40532878  0.21328045    -0.08100
C1379       C  0.91230567  0.42135747  0.20209103    -0.02600
C1380       C  0.92379698  0.43928683  0.21578422     0.04200
N1381       N  0.94047621  0.45552814  0.20557238     0.66700
H1382       H  0.92889921  0.45465528  0.25022600     0.15600
H1383       H  0.88771065  0.39161879  0.20292409     0.15300
N1384       N  0.87711412  0.38992476  0.24843650     0.74400
O1385       O  0.93424747  0.47680643  0.20139889    -0.39100
O1386       O  0.96229132  0.45052330  0.20642831    -0.39000
O1387       O  0.85499219  0.39245148  0.24584905    -0.39700
O1388       O  0.88520013  0.36985578  0.25476070    -0.39800
C1389       C  0.88627342  0.51045100  0.35815861    -0.12100
C1390       C  0.87804216  0.49800610  0.33782051     0.05000
C1391       C  0.86703341  0.51143829  0.31941355    -0.07300
C1392       C  0.86690968  0.53664475  0.32054011    -0.08100
C1393       C  0.87749051  0.54907639  0.33974786    -0.02600
C1394       C  0.88587214  0.53560962  0.35937917     0.04200
N1395       N  0.89435914  0.54713298  0.38062046     0.66700
H1396       H  0.89409871  0.50064690  0.37288910     0.15600
H1397       H  0.86004445  0.54650963  0.30537847     0.15300
N1398       N  0.85754389  0.50006792  0.29853045     0.74400
O1399       O  0.91640262  0.54971217  0.38394775    -0.39100
O1400       O  0.88058365  0.54923454  0.39807461    -0.39000
O1401       O  0.83534066  0.49780238  0.29632059    -0.39700
O1402       O  0.87032267  0.49828372  0.28029184    -0.39800
C1403       C  0.90818316  0.64294637  0.21362997    -0.12100
C1404       C  0.90034705  0.62219103  0.20174038     0.05000
C1405       C  0.88907374  0.60398500  0.21483979    -0.07300
C1406       C  0.88669307  0.60632216  0.23948696    -0.08100
C1407       C  0.89610496  0.62617399  0.25166772    -0.02600
C1408       C  0.90652428  0.64492837  0.23850018     0.04200
N1409       N  0.91560985  0.66598025  0.25000055     0.66700
H1410       H  0.91682185  0.65710186  0.20377429     0.15600
H1411       H  0.87867685  0.59177881  0.24932464     0.15300
N1412       N  0.88038111  0.58270903  0.20347592     0.74400
O1413       O  0.93753174  0.66743760  0.25464102    -0.39100
O1414       O  0.90338279  0.68487406  0.24956558    -0.39000
O1415       O  0.89230811  0.56367277  0.20498335    -0.39700
O1416       O  0.85888879  0.58159638  0.19700944    -0.39800
C1417       C  0.91997237  0.52996984  0.10102300    -0.12100
C1418       C  0.93460029  0.54100332  0.11831072     0.05000
C1419       C  0.94909490  0.52672141  0.13301098    -0.07300
C1420       C  0.94783983  0.50187954  0.13105595    -0.08100
C1421       C  0.93162622  0.49071706  0.11533925    -0.02600
C1422       C  0.91797021  0.50501239  0.09969515     0.04200
N1423       N  0.90067928  0.49481523  0.08376798     0.66700
H1424       H  0.90857714  0.54074574  0.08970494     0.15600
H1425       H  0.95878230  0.49130061  0.14300636     0.15300
N1426       N  0.96457719  0.53701412  0.15062637     0.74400
O1427       O  0.87999713  0.49081348  0.09121421    -0.39100
O1428       O  0.90411977  0.49569452  0.06160745    -0.39000
O1429       O  0.95912640  0.53558015  0.17232861    -0.39700
O1430       O  0.98575756  0.54165097  0.14520176    -0.39800
C1431       C  0.11332185  0.33360912  0.35228504    -0.12100
C1432       C  0.11160459  0.35408234  0.36675821     0.05000
C1433       C  0.10615977  0.35078922  0.39112719    -0.07300
C1434       C  0.10224166  0.32756752  0.40015529    -0.08100
C1435       C  0.10304642  0.30718132  0.38537404    -0.02600
C1436       C  0.10860894  0.31058622  0.36100428     0.04200
N1437       N  0.10723180  0.29138095  0.34411403     0.66700
H1438       H  0.11670013  0.33553622  0.33341169     0.15600
H1439       H  0.09827937  0.32557137  0.41888542     0.15300
N1440       N  0.10431999  0.37070284  0.40703750     0.74400
O1441       O  0.08756129  0.28681509  0.33409800    -0.39100
O1442       O  0.12603941  0.28389165  0.33466911    -0.39000
O1443       O  0.08400418  0.37818836  0.41258409    -0.39700
O1444       O  0.12188438  0.37608469  0.42016750    -0.39800
C1445       C  0.01512934  0.40228321  0.32581485    -0.12100
C1446       C  0.02839093  0.42359738  0.32631472     0.05000
C1447       C  0.01627088  0.44569789  0.32650217    -0.07300
C1448       C  0.99142306  0.44599616  0.32668875    -0.08100
C1449       C  0.97817575  0.42464559  0.32635094    -0.02600
C1450       C  0.99034140  0.40256635  0.32563389     0.04200
N1451       N  0.97797675  0.38018815  0.32485495     0.66700
H1452       H  0.02403571  0.38510955  0.32540011     0.15600
H1453       H  0.98246174  0.46313905  0.32697944     0.15300
N1454       N  0.02875441  0.46801058  0.32684575     0.74400
O1455       O  0.97477724  0.36987031  0.30501725    -0.39100
O1456       O  0.97598289  0.36822594  0.34375636    -0.39000
O1457       O  0.02975627  0.48020917  0.30800151    -0.39700
O1458       O  0.03343066  0.47794680  0.34659407    -0.39800
C1459       C  0.02195002  0.37662493  0.13175420    -0.12100
C1460       C  0.03446577  0.38951164  0.11442304     0.05000
C1461       C  0.02124070  0.40063532  0.09598031    -0.07300
C1462       C  0.99632630  0.40025836  0.09625031    -0.08100
C1463       C  0.98379146  0.38960557  0.11496601    -0.02600
C1464       C  0.99694754  0.37675484  0.13235569     0.04200
N1465       N  0.98546349  0.36515719  0.15174294     0.66700
H1466       H  0.03159750  0.36781962  0.14603466     0.15600
H1467       H  0.98681054  0.41004403  0.08253353     0.15300
N1468       N  0.03266806  0.41365724  0.07748048     0.74400
O1469       O  0.98178027  0.34287517  0.15065850    -0.39100
O1470       O  0.98454139  0.37565151  0.17167569    -0.39000
O1471       O  0.03441368  0.40416296  0.05713271    -0.39700
O1472       O  0.03497768  0.43606202  0.07955279    -0.39800
C1473       C  0.09547883  0.38989913  0.21641243    -0.12100
C1474       C  0.11419409  0.40069945  0.20429873     0.05000
C1475       C  0.13223385  0.41246015  0.21757870    -0.07300
C1476       C  0.13069784  0.41404307  0.24258247    -0.08100
C1477       C  0.11115469  0.40433331  0.25467046    -0.02600
C1478       C  0.09359544  0.39186848  0.24119510     0.04200
N1479       N  0.07320842  0.38167014  0.25219379     0.66700
H1480       H  0.08136090  0.38103624  0.20644676     0.15600
H1481       H  0.14446077  0.42351582  0.25247016     0.15300
N1482       N  0.15211442  0.42292490  0.20584561     0.74400
O1483       O  0.05443803  0.39386592  0.25340189    -0.39100
O1484       O  0.07208535  0.35926997  0.25484198    -0.39000
O1485       O  0.15321167  0.44533825  0.20326309    -0.39700
O1486       O  0.16673361  0.40968323  0.19520228    -0.39800
C1487       C  0.02590008  0.64629050  0.13530487    -0.12100
C1488       C  0.03686521  0.63321057  0.11707028     0.05000
C1489       C  0.02251544  0.62432796  0.09816392    -0.07300
C1490       C  0.99770448  0.62652314  0.09907435    -0.08100
C1491       C  0.98655438  0.63708638  0.11876595    -0.02600
C1492       C  0.00106296  0.64814454  0.13644872     0.04200
N1493       N  0.99101729  0.66031406  0.15636685     0.66700
H1494       H  0.03651963  0.65355923  0.14986792     0.15600
H1495       H  0.98708575  0.61827655  0.08504123     0.15300
N1496       N  0.03269471  0.61225844  0.07826837     0.74400
O1497       O  0.98828107  0.64910967  0.17563017    -0.39100
O1498       O  0.99115341  0.68291339  0.15673548    -0.39000
O1499       O  0.03078174  0.58978707  0.07661695    -0.39700
O1500       O  0.03789946  0.62418245  0.05999576    -0.39800
C1501       C  0.11810729  0.52129850  0.11932978    -0.12100
C1502       C  0.09934292  0.53290944  0.13082611     0.05000
C1503       C  0.08167336  0.51893157  0.14181725    -0.07300
C1504       C  0.08320281  0.49393318  0.14119036    -0.08100
C1505       C  0.10216532  0.48237459  0.12996652    -0.02600
C1506       C  0.11976479  0.49637033  0.11888913     0.04200
N1507       N  0.13968329  0.48574368  0.10742104     0.66700
H1508       H  0.13198439  0.53162858  0.11092167     0.15600
H1509       H  0.06946319  0.48353669  0.14973744     0.15300
N1510       N  0.06197496  0.52963061  0.15355324     0.74400
O1511       O  0.13923850  0.48296872  0.08509072    -0.39100
O1512       O  0.15926330  0.48453671  0.11848833    -0.39000
O1513       O  0.04209547  0.53014735  0.14298871    -0.39700
O1514       O  0.06284449  0.53244583  0.17587279    -0.39800
C1515       C  0.10514360  0.63244052  0.24629878    -0.12100
C1516       C  0.11056487  0.61112710  0.25833337     0.05000
C1517       C  0.11824644  0.59114370  0.24511846    -0.07300
C1518       C  0.11897225  0.59236600  0.22025084    -0.08100
C1519       C  0.11242008  0.61330289  0.20801039    -0.02600
C1520       C  0.10640153  0.63384350  0.22139482     0.04200
N1521       N  0.10133455  0.65617917  0.21014914     0.66700
H1522       H  0.09965925  0.64808739  0.25629934     0.15600
H1523       H  0.12396195  0.57642005  0.21045626     0.15300
N1524       N  0.12361289  0.56888448  0.25640517     0.74400
O1525       O  0.08009519  0.66155566  0.20531192    -0.39100
O1526       O  0.11695916  0.67242337  0.21040191    -0.39000
O1527       O  0.10814744  0.55248805  0.25634775    -0.39700
O1528       O  0.14500002  0.56362343  0.26065726    -0.39800
C1529       C  0.01134126  0.58855390  0.32124108    -0.12100
C1530       C  0.02385204  0.60520383  0.33540705     0.05000
C1531       C  0.01102558  0.62146459  0.34963607    -0.07300
C1532       C  0.98627068  0.62164922  0.34836299    -0.08100
C1533       C  0.97380680  0.60583425  0.33326448    -0.02600
C1534       C  0.98654993  0.58856343  0.32019933     0.04200
N1535       N  0.97474850  0.57071696  0.30604872     0.66700
H1536       H  0.02085315  0.57548575  0.31070962     0.15600
H1537       H  0.97681715  0.63488789  0.35873801     0.15300
N1538       N  0.02268560  0.63868235  0.36465006     0.74400
O1539       O  0.97352561  0.57328017  0.28373761    -0.39100
O1540       O  0.97123695  0.55025900  0.31483661    -0.39000
O1541       O  0.02393716  0.66017378  0.35789583    -0.39700
O1542       O  0.02571812  0.63397253  0.38644511    -0.39800
C1543       C  0.10612083  0.49738831  0.36245735    -0.12100
C1544       C  0.12177986  0.48635108  0.34651494     0.05000
C1545       C  0.13713661  0.50120916  0.33325782    -0.07300
C1546       C  0.13480250  0.52633974  0.33440595    -0.08100
C1547       C  0.11733502  0.53714604  0.34853743    -0.02600
C1548       C  0.10366399  0.52234058  0.36346205     0.04200
N1549       N  0.08660653  0.53223072  0.37933032     0.66700
H1550       H  0.09443558  0.48656837  0.37323823     0.15600
H1551       H  0.14576207  0.53733998  0.32305391     0.15300
N1552       N  0.15481079  0.49121852  0.31815477     0.74400
O1553       O  0.06497020  0.53220273  0.37327421    -0.39100
O1554       O  0.09215685  0.53492691  0.40102806    -0.39000
O1555       O  0.15113448  0.49039560  0.29594104    -0.39700
O1556       O  0.17572575  0.48901194  0.32610492    -0.39800
C1557       C  0.16524407  0.41299093  0.07237416    -0.12100
C1558       C  0.16436308  0.39672211  0.09127097     0.05000
C1559       C  0.18580448  0.38625146  0.09915823    -0.07300
C1560       C  0.20750963  0.39310769  0.08895517    -0.08100
C1561       C  0.20866057  0.41084134  0.07107961    -0.02600
C1562       C  0.18678125  0.42040539  0.06263813     0.04200
N1563       N  0.18588081  0.43848283  0.04469481     0.66700
H1564       H  0.14910988  0.42152722  0.06607974     0.15600
H1565       H  0.22332152  0.38490209  0.09606825     0.15300
N1566       N  0.18604605  0.36892556  0.11781143     0.74400
O1567       O  0.17895475  0.43264118  0.02400802    -0.39100
O1568       O  0.18433428  0.46012986  0.05104090    -0.39000
O1569       O  0.18662823  0.34696558  0.11244571    -0.39700
O1570       O  0.19178763  0.37540137  0.13867000    -0.39800
C1571       C  0.25121937  0.44604093  0.95961381    -0.12100
C1572       C  0.26440728  0.42767129  0.94881843     0.05000
C1573       C  0.27459429  0.40990730  0.96399646    -0.07300
C1574       C  0.27180078  0.41145552  0.98881781    -0.08100
C1575       C  0.25798440  0.42943298  0.99902617    -0.02600
C1576       C  0.24713555  0.44646271  0.98413550     0.04200
N1577       N  0.23080705  0.46358695  0.99332698     0.66700
H1578       H  0.24360340  0.46034020  0.94917188     0.15600
H1579       H  0.27962034  0.39783512  0.00014268     0.15300
N1580       N  0.28655406  0.38934632  0.95487390     0.74400
O1581       O  0.23638516  0.48547000  0.99319695    -0.39100
O1582       O  0.20913991  0.45796479  0.99406781    -0.39000
O1583       O  0.27477113  0.37041083  0.95117440    -0.39700
O1584       O  0.30877867  0.38789592  0.95754928    -0.39800
C1585       C  0.23911540  0.49618650  0.89132867    -0.12100
C1586       C  0.26211794  0.48660593  0.89251966     0.05000
C1587       C  0.28156047  0.50274470  0.89383897    -0.07300
C1588       C  0.27776928  0.52751160  0.89357428    -0.08100
C1589       C  0.25487286  0.53721497  0.89295409    -0.02600
C1590       C  0.23526590  0.52112037  0.89178218     0.04200
N1591       N  0.21131334  0.52954877  0.89179398     0.66700
H1592       H  0.22393071  0.48427019  0.89023181     0.15600
H1593       H  0.29310864  0.53923441  0.89418246     0.15300
N1594       N  0.30536473  0.49446369  0.89691034     0.74400
O1595       O  0.19780533  0.52540431  0.87414744    -0.39100
O1596       O  0.20341360  0.54066283  0.90962518    -0.39000
O1597       O  0.31994591  0.49715684  0.88021958    -0.39700
O1598       O  0.31307849  0.49033867  0.91768324    -0.39800
C1599       C  0.16940688  0.60281483  0.07895774    -0.12100
C1600       C  0.16826268  0.61571012  0.10037339     0.05000
C1601       C  0.18977718  0.62331210  0.11121804    -0.07300
C1602       C  0.21163731  0.61806755  0.10052173    -0.08100
C1603       C  0.21293238  0.60432506  0.07941852    -0.02600
C1604       C  0.19113211  0.59639034  0.06893233     0.04200
N1605       N  0.19050520  0.58048597  0.04885404     0.66700
H1606       H  0.15324696  0.59600529  0.07069816     0.15600
H1607       H  0.22748286  0.62391265  0.10980880     0.15300
N1608       N  0.18996875  0.63564788  0.13356774     0.74400
O1609       O  0.18963715  0.55821096  0.05250609    -0.39100
O1610       O  0.18339308  0.58836867  0.02898752    -0.39000
O1611       O  0.19358802  0.62391861  0.15243201    -0.39700
O1612       O  0.19287246  0.65806086  0.13388074    -0.39800
C1613       C  0.26008958  0.52139934  0.08159735    -0.12100
C1614       C  0.26449778  0.53407686  0.06052375     0.05000
C1615       C  0.26953760  0.52090883  0.03960989    -0.07300
C1616       C  0.26858978  0.49575795  0.03994316    -0.08100
C1617       C  0.26171970  0.48331565  0.06043625    -0.02600
C1618       C  0.25828650  0.49640868  0.08169970     0.04200
N1619       N  0.25266030  0.48477146  0.10356555     0.66700
H1620       H  0.25683441  0.53108411  0.09801614     0.15600
H1621       H  0.27160217  0.48602619  0.02353243     0.15300
N1622       N  0.27299886  0.53249842  0.01728791     0.74400
O1623       O  0.26931791  0.47882015  0.11750709    -0.39100
O1624       O  0.23192745  0.48657446  0.11164128    -0.39000
O1625       O  0.29366795  0.53359562  0.00895033    -0.39700
O1626       O  0.25548718  0.53458968  0.00325258    -0.39800
C1627       C  0.23699258  0.58438155  0.99328606    -0.12100
C1628       C  0.25850437  0.59019851  0.00472840     0.05000
C1629       C  0.27884818  0.59367293  0.99064722    -0.07300
C1630       C  0.27678004  0.59265489  0.96560728    -0.08100
C1631       C  0.25463825  0.58887738  0.95435962    -0.02600
C1632       C  0.23472562  0.58403344  0.96862394     0.04200
N1633       N  0.21195196  0.57834889  0.95859649     0.66700
H1634       H  0.22148385  0.58005634  0.00363285     0.15600
H1635       H  0.29232893  0.59601960  0.95494514     0.15300
N1636       N  0.30125687  0.59981903  0.00117748     0.74400
O1637       O  0.20594625  0.55661644  0.95703206    -0.39100
O1638       O  0.19587809  0.59403077  0.95922825    -0.39000
O1639       O  0.31734899  0.58418391  0.00222337    -0.39700
O1640       O  0.30690719  0.62162406  0.00310969    -0.39800
C1641       C  0.18509658  0.61874639  0.84400869    -0.12100
C1642       C  0.16682965  0.62762669  0.85844650     0.05000
C1643       C  0.17274130  0.63438578  0.88201924    -0.07300
C1644       C  0.19529089  0.62900318  0.89146297    -0.08100
C1645       C  0.21244271  0.61643078  0.87810013    -0.02600
C1646       C  0.20777070  0.61371853  0.85336373     0.04200
N1647       N  0.22561181  0.60530315  0.83749567     0.66700
H1648       H  0.18156225  0.61477249  0.82538152     0.15600
H1649       H  0.19859172  0.63450190  0.90959394     0.15300
N1650       N  0.15591543  0.64578441  0.89712580     0.74400
O1651       O  0.22397597  0.58441547  0.82894761    -0.39100
O1652       O  0.23857072  0.62044344  0.82718954    -0.39000
O1653       O  0.14514810  0.63339126  0.91236030    -0.39700
O1654       O  0.15702567  0.66820343  0.89989701    -0.39800
C1655       C  0.99572126  0.66567209  0.82634120    -0.12100
C1656       C  0.98268230  0.65424624  0.84429623     0.05000
C1657       C  0.99542678  0.64436891  0.86379969    -0.07300
C1658       C  0.02029352  0.64389807  0.86373574    -0.08100
C1659       C  0.03325942  0.65265232  0.84440794    -0.02600
C1660       C  0.02073230  0.66495569  0.82618857     0.04200
N1661       N  0.03286763  0.67566525  0.80669630     0.66700
H1662       H  0.98648526  0.67374673  0.81137449     0.15600
H1663       H  0.02937698  0.63480054  0.87820372     0.15300
N1664       N  0.98356776  0.63299552  0.88307759     0.74400
O1665       O  0.03516288  0.66398900  0.78755899    -0.39100
O1666       O  0.03577196  0.69808335  0.80652186    -0.39000
O1667       O  0.98194634  0.61044561  0.88325123    -0.39700
O1668       O  0.98082678  0.64446139  0.90226826    -0.39800
C1669       C  0.93717665  0.54548758  0.83719991    -0.12100
C1670       C  0.91516791  0.55684457  0.83419348     0.05000
C1671       C  0.89422905  0.54294340  0.83395907    -0.07300
C1672       C  0.89564124  0.51830818  0.83722773    -0.08100
C1673       C  0.91760909  0.50686198  0.84003529    -0.02600
C1674       C  0.93863332  0.52067678  0.83976216     0.04200
N1675       N  0.96159180  0.50992475  0.84107565     0.66700
H1676       H  0.95348110  0.55583599  0.83709804     0.15600
H1677       H  0.87929700  0.50802032  0.83687009     0.15300
N1678       N  0.87141539  0.55325747  0.82961755     0.74400
O1679       O  0.97217418  0.50490863  0.82199925    -0.39100
O1680       O  0.97339979  0.51133368  0.86027564    -0.39000
O1681       O  0.86248562  0.55209220  0.80891148    -0.39700
O1682       O  0.85818228  0.55790521  0.84701380    -0.39800
C1683       C  0.17802647  0.40378739  0.87580304    -0.12100
C1684       C  0.17050420  0.42043630  0.85846228     0.05000
C1685       C  0.18719592  0.43771884  0.85050088    -0.07300
C1686       C  0.21039587  0.43787526  0.85950299    -0.08100
C1687       C  0.21773236  0.42140382  0.87660392    -0.02600
C1688       C  0.20147123  0.40429432  0.88496243     0.04200
N1689       N  0.20847359  0.38779590  0.90309646     0.66700
H1690       H  0.16564184  0.39063459  0.88251194     0.15600
H1691       H  0.22279284  0.45128188  0.85324385     0.15300
N1692       N  0.18093116  0.45581988  0.83367049     0.74400
O1693       O  0.20746229  0.39408597  0.92468821    -0.39100
O1694       O  0.22016323  0.36940813  0.89752244    -0.39000
O1695       O  0.17669156  0.47670997  0.84110328    -0.39700
O1696       O  0.18584957  0.45272956  0.81199933    -0.39800
C1697       C  0.06823303  0.50854544  0.83954257    -0.12100
C1698       C  0.08674165  0.49699471  0.85178274     0.05000
C1699       C  0.10278321  0.51092067  0.86558882    -0.07300
C1700       C  0.10146364  0.53595932  0.86484883    -0.08100
C1701       C  0.08444755  0.54751666  0.85053057    -0.02600
C1702       C  0.06689848  0.53352176  0.83880741     0.04200
N1703       N  0.04823501  0.54420442  0.82510935     0.66700
H1704       H  0.05534260  0.49814766  0.82937260     0.15600
H1705       H  0.11490467  0.54633868  0.87427627     0.15300
N1706       N  0.12185116  0.50020858  0.87866100     0.74400
O1707       O  0.05051842  0.54616965  0.80285991    -0.39100
O1708       O  0.02780825  0.54572256  0.83396039    -0.39000
O1709       O  0.14231657  0.50010214  0.86979644    -0.39700
O1710       O  0.11967992  0.49696804  0.90076751    -0.39800
C1711       C  0.02266263  0.41487325  0.86901070    -0.12100
C1712       C  0.03337380  0.40054112  0.85156135     0.05000
C1713       C  0.01839585  0.38652269  0.83656445    -0.07300
C1714       C  0.99352574  0.38909183  0.83766360    -0.08100
C1715       C  0.98299301  0.40544579  0.85349004    -0.02600
C1716       C  0.99796122  0.41761910  0.86999765     0.04200
N1717       N  0.98872119  0.43463427  0.88652327     0.66700
H1718       H  0.03358213  0.42573842  0.88087475     0.15600
H1719       H  0.98250018  0.37911790  0.82514096     0.15300
N1720       N  0.02797544  0.36980342  0.81993877     0.74400
O1721       O  0.98462688  0.42817469  0.90759979    -0.39100
O1722       O  0.99012389  0.45668333  0.88185739    -0.39000
O1723       O  0.02868036  0.34793175  0.82548053    -0.39700
O1724       O  0.02935767  0.37555543  0.79827723    -0.39800
C1725       C  0.09284484  0.59956308  0.72065227    -0.12100
C1726       C  0.11014631  0.61367579  0.70958867     0.05000
C1727       C  0.12551938  0.62778282  0.72393603    -0.07300
C1728       C  0.12236895  0.62853155  0.74868728    -0.08100
C1729       C  0.10461977  0.61484425  0.75957711    -0.02600
C1730       C  0.09012103  0.59978513  0.74530723     0.04200
N1731       N  0.07200433  0.58510519  0.75532913     0.66700
H1732       H  0.08104387  0.58830132  0.71006574     0.15600
H1733       H  0.13403864  0.63973684  0.75946743     0.15300
N1734       N  0.14421448  0.64160046  0.71384444     0.74400
O1735       O  0.05095066  0.59272050  0.75565176    -0.39100
O1736       O  0.07572947  0.56296566  0.75771214    -0.39000
O1737       O  0.14130220  0.66378620  0.71086352    -0.39700
O1738       O  0.16499128  0.63323004  0.71403895    -0.39800
C1739       C  0.12130327  0.35197014  0.60238236    -0.12100
C1740       C  0.10576177  0.37023702  0.59542195     0.05000
C1741       C  0.08855986  0.36485728  0.57766869    -0.07300
C1742       C  0.08580922  0.34133169  0.56923219    -0.08100
C1743       C  0.09945992  0.32217886  0.57806060    -0.02600
C1744       C  0.11884145  0.32842085  0.59359105     0.04200
N1745       N  0.13720967  0.31190491  0.59969512     0.66700
H1746       H  0.13550647  0.35589058  0.61500477     0.15600
H1747       H  0.07224936  0.33848858  0.55597277     0.15300
N1748       N  0.07310726  0.38282665  0.56826192     0.74400
O1749       O  0.15443097  0.30946442  0.58572375    -0.39100
O1750       O  0.13967347  0.30550488  0.62113378    -0.39000
O1751       O  0.07645109  0.39039906  0.54740699    -0.39700
O1752       O  0.05318523  0.38608076  0.57777580    -0.39800
C1753       C  0.14527695  0.53527686  0.63556093    -0.12100
C1754       C  0.13362222  0.54754471  0.61699558     0.05000
C1755       C  0.12395391  0.53395913  0.59785435    -0.07300
C1756       C  0.12397246  0.50888446  0.59889096    -0.08100
C1757       C  0.13282012  0.49675080  0.61895453    -0.02600
C1758       C  0.14470840  0.51017967  0.63690332     0.04200
N1759       N  0.15377350  0.49905471  0.65799922     0.66700
H1760       H  0.15291533  0.54519902  0.65043045     0.15600
H1761       H  0.11505909  0.49895479  0.58474316     0.15300
N1762       N  0.11222188  0.54509731  0.57812717     0.74400
O1763       O  0.17576722  0.49525545  0.65993076    -0.39100
O1764       O  0.14115532  0.49861476  0.67643253    -0.39000
O1765       O  0.12267211  0.54601504  0.55838508    -0.39700
O1766       O  0.08996101  0.54745835  0.57852571    -0.39800
C1767       C  0.11728613  0.40991395  0.72156738    -0.12100
C1768       C  0.10711227  0.42990052  0.71025401     0.05000
C1769       C  0.09710132  0.44807628  0.72455048    -0.07300
C1770       C  0.09689389  0.44568887  0.74926707    -0.08100
C1771       C  0.10645660  0.42551055  0.76066136    -0.02600
C1772       C  0.11705439  0.40755685  0.74652401     0.04200
N1773       N  0.12783695  0.38697666  0.75702240     0.66700
H1774       H  0.12518554  0.39581435  0.71099465     0.15600
H1775       H  0.08882266  0.45987963  0.75959503     0.15300
N1776       N  0.08681085  0.46913627  0.71443828     0.74400
O1777       O  0.11590993  0.36790893  0.75869534    -0.39100
O1778       O  0.15016782  0.38601268  0.75863773    -0.39000
O1779       O  0.06453377  0.47048518  0.71235141    -0.39700
O1780       O  0.09906688  0.48805270  0.71347775    -0.39800
C1781       C  0.91004925  0.37806035  0.58114452    -0.12100
C1782       C  0.89343463  0.38109092  0.59930006     0.05000
C1783       C  0.88064311  0.36075205  0.60685874    -0.07300
C1784       C  0.88621596  0.33785547  0.59781590    -0.08100
C1785       C  0.90456491  0.33450649  0.58117286    -0.02600
C1786       C  0.91577166  0.35543259  0.57218072     0.04200
N1787       N  0.93398113  0.35421381  0.55464648     0.66700
H1788       H  0.91988652  0.39334132  0.57459236     0.15600
H1789       H  0.87632304  0.32286450  0.60459781     0.15300
N1790       N  0.86221916  0.36280627  0.62399687     0.74400
O1791       O  0.92847395  0.35796696  0.53312508    -0.39100
O1792       O  0.95525107  0.35742219  0.56120547    -0.39000
O1793       O  0.84088679  0.36288043  0.61690324    -0.39700
O1794       O  0.86680388  0.35850594  0.64561708    -0.39800
C1795       C  0.99095329  0.45883209  0.63591455    -0.12100
C1796       C  0.97807368  0.43756934  0.63925836     0.05000
C1797       C  0.99056298  0.41587390  0.64238059    -0.07300
C1798       C  0.01534380  0.41589711  0.64193392    -0.08100
C1799       C  0.02816473  0.43716158  0.63856452    -0.02600
C1800       C  0.01573181  0.45886055  0.63568395     0.04200
N1801       N  0.02787217  0.48122590  0.63342270     0.66700
H1802       H  0.98177205  0.47572697  0.63377477     0.15600
H1803       H  0.02458397  0.39903650  0.64412692     0.15300
N1804       N  0.97855943  0.39360311  0.64585679     0.74400
O1805       O  0.02967283  0.49064913  0.61312310    -0.39100
O1806       O  0.03165323  0.49384879  0.65179367    -0.39000
O1807       O  0.97679018  0.37902454  0.62867226    -0.39700
O1808       O  0.97566474  0.38610518  0.66680967    -0.39800
C1809       C  0.90880221  0.45732371  0.72636557    -0.12100
C1810       C  0.90274883  0.43675631  0.71326638     0.05000
C1811       C  0.89938706  0.41497105  0.72547439    -0.07300
C1812       C  0.90264967  0.41412105  0.75033667    -0.08100
C1813       C  0.90910357  0.43471253  0.76341391    -0.02600
C1814       C  0.91177971  0.45662818  0.75108425     0.04200
N1815       N  0.91704325  0.47857869  0.76327817     0.66700
H1816       H  0.91125540  0.47425756  0.71731475     0.15600
H1817       H  0.90040623  0.39717405  0.75938471     0.15300
N1818       N  0.89385605  0.39334255  0.71288536     0.74400
O1819       O  0.93799505  0.48661781  0.76319199    -0.39100
O1820       O  0.90025660  0.49247626  0.76852531    -0.39000
O1821       O  0.91022178  0.37864238  0.70851944    -0.39700
O1822       O  0.87252847  0.38652397  0.71129414    -0.39800
C1823       C  0.99603284  0.59547319  0.63386238    -0.12100
C1824       C  0.98619478  0.61328013  0.61924288     0.05000
C1825       C  0.00114648  0.62588679  0.60360911    -0.07300
C1826       C  0.02564681  0.62191156  0.60441794    -0.08100
C1827       C  0.03566873  0.60571645  0.62070310    -0.02600
C1828       C  0.02047942  0.59157727  0.63476322     0.04200
N1829       N  0.02947248  0.57375128  0.65066311     0.66700
H1830       H  0.98477271  0.58505050  0.64545843     0.15600
H1831       H  0.03697586  0.63277938  0.59330443     0.15300
N1832       N  0.99217261  0.64406849  0.58814594     0.74400
O1833       O  0.03218808  0.57887528  0.67245488    -0.39100
O1834       O  0.02849495  0.55202464  0.64442752    -0.39000
O1835       O  0.99415423  0.66573850  0.59435757    -0.39700
O1836       O  0.98827503  0.63905734  0.56650197    -0.39800
C1837       C  0.87192794  0.55206459  0.63251026    -0.12100
C1838       C  0.88629029  0.56220717  0.61480058     0.05000
C1839       C  0.89660209  0.54650832  0.59800042    -0.07300
C1840       C  0.89485602  0.52156618  0.60092327    -0.08100
C1841       C  0.88269496  0.51137926  0.62018452    -0.02600
C1842       C  0.86987430  0.52701750  0.63520216     0.04200
N1843       N  0.85523821  0.51797694  0.65373577     0.66700
H1844       H  0.86328244  0.56359811  0.64531209     0.15600
H1845       H  0.90422553  0.51012313  0.58856924     0.15300
N1846       N  0.90966981  0.55543897  0.57824648     0.74400
O1847       O  0.86307538  0.51790444  0.67488937    -0.39100
O1848       O  0.83316258  0.51626581  0.65005010    -0.39000
O1849       O  0.93204081  0.55451301  0.57878969    -0.39700
O1850       O  0.89911600  0.55818209  0.55849401    -0.39800
C1851       C  0.91570594  0.61344540  0.71497898    -0.12100
C1852       C  0.90624170  0.63321652  0.70300312     0.05000
C1853       C  0.89605926  0.65190987  0.71644556    -0.07300
C1854       C  0.89703627  0.65110416  0.74153333    -0.08100
C1855       C  0.90748722  0.63163063  0.75350707    -0.02600
C1856       C  0.91610644  0.61224277  0.73978005     0.04200
N1857       N  0.92563271  0.59114988  0.75054948     0.66700
H1858       H  0.92304264  0.59863419  0.70492500     0.15600
H1859       H  0.88990950  0.66595537  0.75164375     0.15300
N1860       N  0.88574582  0.67229000  0.70511319     0.74400
O1861       O  0.91220119  0.57333507  0.75366857    -0.39100
O1862       O  0.94782650  0.58823692  0.75118804    -0.39000
O1863       O  0.86344635  0.67365710  0.70336327    -0.39700
O1864       O  0.89804982  0.69104099  0.70283346    -0.39800
C1865       C  0.42216542  0.10882688  0.30284642    -0.12100
C1866       C  0.41012634  0.09538852  0.28526370     0.05000
C1867       C  0.38835235  0.08457380  0.29109341    -0.07300
C1868       C  0.37899425  0.08739510  0.31400127    -0.08100
C1869       C  0.39082401  0.10088862  0.33181744    -0.02600
C1870       C  0.41271153  0.11181834  0.32587965     0.04200
N1871       N  0.42584538  0.12566168  0.34295946     0.66700
H1872       H  0.43902326  0.11710542  0.29865686     0.15600
H1873       H  0.36236099  0.07853782  0.31790778     0.15300
N1874       N  0.37595275  0.06972840  0.27426362     0.74400
O1875       O  0.44319079  0.11618907  0.35372094    -0.39100
O1876       O  0.42422788  0.14819006  0.34251432    -0.39000
O1877       O  0.37861546  0.04731743  0.27514865    -0.39700
O1878       O  0.35852327  0.07820882  0.26282987    -0.39800
C1879       C  0.59890649  0.90906176  0.31044510    -0.12100
C1880       C  0.61444996  0.91587668  0.29228662     0.05000
C1881       C  0.63870363  0.91897476  0.29804708    -0.07300
C1882       C  0.64685508  0.91558714  0.32153878    -0.08100
C1883       C  0.63129719  0.90948382  0.34006536    -0.02600
C1884       C  0.60703475  0.90583458  0.33412145     0.04200
N1885       N  0.59009055  0.90022548  0.35197983     0.66700
H1886       H  0.58026425  0.90643396  0.30629796     0.15600
H1887       H  0.66548112  0.91874049  0.32546296     0.15300
N1888       N  0.65504351  0.92717999  0.28051965     0.74400
O1889       O  0.57896601  0.91706893  0.36186063    -0.39100
O1890       O  0.58187388  0.87921251  0.35303120    -0.39000
O1891       O  0.65319294  0.94806269  0.27219071    -0.39700
O1892       O  0.67043203  0.91310497  0.27230817    -0.39800
C1893       C  0.39671935  0.88916961  0.30231708    -0.12100
C1894       C  0.41589762  0.90560732  0.30302827     0.05000
C1895       C  0.42421910  0.91294908  0.32596476    -0.07300
C1896       C  0.41339985  0.90461225  0.34667325    -0.08100
C1897       C  0.39350748  0.88962590  0.34576043    -0.02600
C1898       C  0.38544996  0.88144379  0.32325684     0.04200
N1899       N  0.36589653  0.86520201  0.32123065     0.66700
H1900       H  0.38946617  0.88266583  0.28566978     0.15600
H1901       H  0.41966448  0.91155625  0.36370346     0.15300
N1902       N  0.44300929  0.92991915  0.32892175     0.74400
O1903       O  0.34550543  0.87327572  0.31648752    -0.39100
O1904       O  0.36997365  0.84322556  0.31797122    -0.39000
O1905       O  0.43760735  0.95153707  0.33234075    -0.39700
O1906       O  0.46269781  0.92257676  0.33683551    -0.39800
C1907       C  0.43805475  0.98882358  0.23126070    -0.12100
C1908       C  0.43455413  0.98055906  0.25457571     0.05000
C1909       C  0.43176351  0.99816660  0.27271015    -0.07300
C1910       C  0.43106054  0.02260868  0.26692494    -0.08100
C1911       C  0.43422342  0.03062966  0.24352913    -0.02600
C1912       C  0.43834074  0.01326834  0.22563309     0.04200
N1913       N  0.44449033  0.01991902  0.20192078     0.66700
H1914       H  0.44111138  0.97639445  0.21700703     0.15600
H1915       H  0.42826891  0.03541848  0.28115425     0.15300
N1916       N  0.43186294  0.99213392  0.29738189     0.74400
O1917       O  0.46612074  0.02262724  0.19698085    -0.39100
O1918       O  0.42976696  0.01615532  0.18519127    -0.39000
O1919       O  0.45146339  0.99212612  0.30848776    -0.39700
O1920       O  0.41296413  0.99444530  0.30902235    -0.39800
C1921       C  0.50014072  0.92092974  0.23393059    -0.12100
C1922       C  0.49167973  0.92224779  0.25727617     0.05000
C1923       C  0.50855409  0.92334794  0.27620299    -0.07300
C1924       C  0.53290917  0.92292460  0.27138459    -0.08100
C1925       C  0.54140631  0.92218451  0.24799880    -0.02600
C1926       C  0.52445207  0.92137773  0.22900345     0.04200
N1927       N  0.53107213  0.92203416  0.20447656     0.66700
H1928       H  0.48779471  0.91958165  0.21905431     0.15600
H1929       H  0.54522879  0.92342867  0.28630647     0.15300
N1930       N  0.50163226  0.92603887  0.30044740     0.74400
O1931       O  0.53100444  0.90267389  0.19279501    -0.39100
O1932       O  0.52834603  0.94133000  0.19318666    -0.39000
O1933       O  0.50532775  0.90896224  0.31467316    -0.39700
O1934       O  0.49894468  0.94688612  0.30874805    -0.39800
C1935       C  0.63491851  0.10359914  0.29182848    -0.12100
C1936       C  0.61013692  0.10231584  0.28914724     0.05000
C1937       C  0.59610395  0.10604685  0.30962947    -0.07300
C1938       C  0.60704542  0.11118285  0.33186700    -0.08100
C1939       C  0.63190189  0.11198111  0.33449121    -0.02600
C1940       C  0.64579302  0.10807215  0.31401989     0.04200
N1941       N  0.67111289  0.10863195  0.31528735     0.66700
H1942       H  0.64615208  0.10041606  0.27660195     0.15600
H1943       H  0.59600363  0.11371912  0.34735340     0.15300
N1944       N  0.57078551  0.10486962  0.30831095     0.74400
O1945       O  0.68232332  0.08912727  0.31629658    -0.39100
O1946       O  0.68188417  0.12736324  0.30897286    -0.39000
O1947       O  0.56033134  0.08656133  0.31617820    -0.39700
O1948       O  0.55916753  0.12395230  0.30552350    -0.39800
C1949       C  0.58074390  0.01928901  0.22868409    -0.12100
C1950       C  0.59267378  0.03231747  0.24644248     0.05000
C1951       C  0.60496603  0.02002311  0.26457619    -0.07300
C1952       C  0.60563923  0.99473168  0.26421852    -0.08100
C1953       C  0.59411370  0.98173482  0.24583899    -0.02600
C1954       C  0.58102369  0.99435291  0.22846570     0.04200
N1955       N  0.56674518  0.98211858  0.21116002     0.66700
H1956       H  0.57107237  0.02864038  0.21474991     0.15600
H1957       H  0.61583064  0.98531268  0.27769547     0.15300
N1958       N  0.61819920  0.03307103  0.28222921     0.74400
O1959       O  0.54472407  0.98076738  0.21468632    -0.39100
O1960       O  0.57437258  0.97975678  0.19022863    -0.39000
O1961       O  0.60815826  0.03946581  0.30119186    -0.39700
O1962       O  0.63766479  0.04265603  0.27666464    -0.39800
C1963       C  0.52475112  0.11142632  0.24279422    -0.12100
C1964       C  0.53638756  0.08977396  0.24758479     0.05000
C1965       C  0.52250532  0.06961065  0.25370654    -0.07300
C1966       C  0.49761697  0.07113343  0.25320794    -0.08100
C1967       C  0.48600616  0.09240129  0.24677287    -0.02600
C1968       C  0.49996690  0.11296864  0.24234467     0.04200
N1969       N  0.48946097  0.13563690  0.23722340     0.66700
H1970       H  0.53504727  0.12729941  0.23873954     0.15600
H1971       H  0.48737469  0.05504564  0.25646908     0.15300
N1972       N  0.53299803  0.04686570  0.25841560     0.74400
O1973       O  0.48384234  0.14910265  0.25435656    -0.39100
O1974       O  0.49249328  0.14473997  0.21692838    -0.39000
O1975       O  0.53619809  0.04068012  0.27981189    -0.39700
O1976       O  0.53145671  0.03079983  0.24259490    -0.39800
C1977       C  0.62669404  0.91635857  0.18300768    -0.12100
C1978       C  0.61627496  0.90385538  0.20212715     0.05000
C1979       C  0.61418060  0.87857478  0.19969257    -0.07300
C1980       C  0.62001369  0.86721916  0.17819635    -0.08100
C1981       C  0.62808952  0.88016231  0.15847652    -0.02600
C1982       C  0.63235602  0.90491697  0.16143614     0.04200
N1983       N  0.64093126  0.91921190  0.14229881     0.66700
H1984       H  0.62979933  0.93535349  0.18381084     0.15600
H1985       H  0.61702383  0.84808807  0.17663003     0.15300
N1986       N  0.60505432  0.86404998  0.21843806     0.74400
O1987       O  0.62621848  0.92991302  0.12901671    -0.39100
O1988       O  0.66228383  0.92608643  0.14272227    -0.39000
O1989       O  0.58415353  0.85600426  0.21662686    -0.39700
O1990       O  0.61950373  0.85371543  0.23228815    -0.39800
C1991       C  0.65590870  0.84897745  0.98645624    -0.12100
C1992       C  0.64579340  0.86932481  0.97582539     0.05000
C1993       C  0.63894898  0.88852591  0.99066446    -0.07300
C1994       C  0.63983419  0.88595207  0.01548825    -0.08100
C1995       C  0.64694816  0.86432317  0.02609708    -0.02600
C1996       C  0.65620551  0.84611107  0.01129446     0.04200
N1997       N  0.66347059  0.82353997  0.02073704     0.66700
H1998       H  0.66124228  0.83397353  0.97544567     0.15600
H1999       H  0.63314077  0.90041983  0.02643017     0.15300
N2000       N  0.62975945  0.91026221  0.98093949     0.74400
O2001       O  0.64870085  0.80651064  0.02120141    -0.39100
O2002       O  0.68533402  0.81893774  0.02233867    -0.39000
O2003       O  0.60765000  0.91380107  0.98097193    -0.39700
O2004       O  0.64357976  0.92787703  0.97846705    -0.39800
C2005       C  0.52902689  0.82766858  0.91046486    -0.12100
C2006       C  0.54018106  0.84739137  0.92140986     0.05000
C2007       C  0.52626911  0.86430918  0.93367909    -0.07300
C2008       C  0.50155169  0.86205053  0.93329401    -0.08100
C2009       C  0.49038009  0.84303998  0.92112859    -0.02600
C2010       C  0.50441104  0.82527861  0.91026184     0.04200
N2011       N  0.49406482  0.80556740  0.89750931     0.66700
H2012       H  0.53944451  0.81424177  0.90133603     0.15600
H2013       H  0.49102792  0.87572803  0.94191398     0.15300
N2014       N  0.53667841  0.88453164  0.94551248     0.74400
O2015       O  0.49144174  0.80693659  0.87519082    -0.39100
O2016       O  0.49297686  0.78534617  0.90739674    -0.39000
O2017       O  0.53667983  0.90454790  0.93515638    -0.39700
O2018       O  0.53985791  0.88383326  0.96779552    -0.39800
C2019       C  0.41628589  0.90695536  0.16900622    -0.12100
C2020       C  0.42022965  0.88230383  0.16616979     0.05000
C2021       C  0.42709256  0.86905683  0.18662483    -0.07300
C2022       C  0.42995287  0.88051990  0.20884522    -0.08100
C2023       C  0.42624655  0.90524431  0.21170066    -0.02600
C2024       C  0.41920745  0.91846567  0.19130658     0.04200
N2025       N  0.41424540  0.94344957  0.19267641     0.66700
H2026       H  0.41114853  0.91757074  0.15368247     0.15600
H2027       H  0.43539453  0.86991010  0.22407957     0.15300
N2028       N  0.43148580  0.84389420  0.18528025     0.74400
O2029       O  0.42665168  0.95757994  0.18046820    -0.39100
O2030       O  0.39369896  0.94989261  0.19863282    -0.39000
O2031       O  0.45260121  0.83645868  0.18480791    -0.39700
O2032       O  0.41495806  0.82938956  0.18986221    -0.39800
C2033       C  0.50855929  0.85827175  0.06737677    -0.12100
C2034       C  0.49817326  0.86613895  0.08855570     0.05000
C2035       C  0.51252599  0.87620336  0.10674484    -0.07300
C2036       C  0.53711935  0.87651839  0.10413820    -0.08100
C2037       C  0.54768422  0.86674218  0.08376831    -0.02600
C2038       C  0.53314053  0.85863012  0.06475095     0.04200
N2039       N  0.54294536  0.85042413  0.04282477     0.66700
H2040       H  0.49755830  0.85117993  0.05300371     0.15600
H2041       H  0.54801337  0.88281994  0.11894417     0.15300
N2042       N  0.50275625  0.88377729  0.12892778     0.74400
O2043       O  0.54429674  0.82821208  0.03885394    -0.39100
O2044       O  0.54432228  0.86478542  0.02558804    -0.39000
O2045       O  0.50222821  0.86927758  0.14610728    -0.39700
O2046       O  0.50013490  0.90585272  0.13296535    -0.39800
C2047       C  0.39103487  0.84632856  0.01729298    -0.12100
C2048       C  0.40296282  0.86588606  0.02783606     0.05000
C2049       C  0.41171746  0.88392420  0.01251437    -0.07300
C2050       C  0.40964738  0.88138386  0.98753814    -0.08100
C2051       C  0.39974175  0.86071262  0.97703979    -0.02600
C2052       C  0.38969786  0.84337818  0.99234996     0.04200
N2053       N  0.37902893  0.82200694  0.98308512     0.66700
H2054       H  0.38412675  0.83221410  0.02848103     0.15600
H2055       H  0.41750558  0.89494138  0.97630909     0.15300
N2056       N  0.42362548  0.90458798  0.02183714     0.74400
O2057       O  0.38974925  0.80240717  0.98590613    -0.39100
O2058       O  0.35695258  0.82170160  0.97906629    -0.39000
O2059       O  0.44599994  0.90466659  0.02302291    -0.39700
O2060       O  0.41270170  0.92427296  0.02233855    -0.39800
C2061       C  0.31878929  0.59731388  0.87879597    -0.12100
C2062       C  0.30192539  0.60952061  0.89252987     0.05000
C2063       C  0.30901121  0.63035011  0.90492622    -0.07300
C2064       C  0.33235292  0.63870954  0.90333998    -0.08100
C2065       C  0.34938821  0.62697353  0.88936655    -0.02600
C2066       C  0.34234003  0.60592888  0.87694419     0.04200
N2067       N  0.35874730  0.59287673  0.86273107     0.66700
H2068       H  0.31359806  0.58115580  0.86929312     0.15600
H2069       H  0.33706787  0.65481738  0.91316844     0.15300
N2070       N  0.29271696  0.64327625  0.91943083     0.74400
O2071       O  0.36992221  0.57559168  0.87188078    -0.39100
O2072       O  0.35750160  0.59456848  0.84033489    -0.39000
O2073       O  0.29439887  0.64170101  0.94180968    -0.39700
O2074       O  0.28135530  0.66052253  0.91045651    -0.39800
C2075       C  0.39029733  0.74057609  0.90582090    -0.12100
C2076       C  0.39846607  0.72927812  0.88507764     0.05000
C2077       C  0.40263852  0.74335505  0.86469288    -0.07300
C2078       C  0.40147242  0.76843287  0.86643472    -0.08100
C2079       C  0.39555974  0.77962874  0.88799161    -0.02600
C2080       C  0.38884881  0.76546669  0.90746133     0.04200
N2081       N  0.38462781  0.77597364  0.93025287     0.66700
H2082       H  0.38672064  0.73011841  0.92162259     0.15600
H2083       H  0.40670181  0.77922432  0.85135410     0.15300
N2084       N  0.40989105  0.73280398  0.84275122     0.74400
O2085       O  0.36384157  0.77611218  0.93837008    -0.39100
O2086       O  0.40199078  0.77933963  0.94427195    -0.39000
O2087       O  0.39456741  0.72930057  0.82652470    -0.39700
O2088       O  0.43158266  0.73307836  0.83742848    -0.39800
C2089       C  0.59348942  0.73781845  0.08791077    -0.12100
C2090       C  0.60707318  0.72501602  0.10457750     0.05000
C2091       C  0.62401878  0.73753811  0.11868663    -0.07300
C2092       C  0.62707446  0.76239016  0.11559364    -0.08100
C2093       C  0.61332518  0.77502911  0.09880855    -0.02600
C2094       C  0.59644694  0.76236817  0.08486268     0.04200
N2095       N  0.58286333  0.77389055  0.06658525     0.66700
H2096       H  0.58055415  0.72861828  0.07669265     0.15600
H2097       H  0.64007498  0.77184916  0.12649611     0.15300
N2098       N  0.63877614  0.72535415  0.13554864     0.74400
O2099       O  0.59030461  0.77352564  0.04546154    -0.39100
O2100       O  0.56142118  0.77896249  0.07033931    -0.39000
O2101       O  0.65975378  0.72008256  0.12995563    -0.39700
O2102       O  0.63311341  0.72541574  0.15723947    -0.39800
C2103       C  0.33171356  0.64195945  0.07878975    -0.12100
C2104       C  0.34940333  0.62697810  0.08836669     0.05000
C2105       C  0.34391267  0.60246632  0.09163937    -0.07300
C2106       C  0.32152265  0.59344102  0.08452743    -0.08100
C2107       C  0.30414336  0.60852642  0.07470588    -0.02600
C2108       C  0.30935472  0.63309648  0.07213493     0.04200
N2109       N  0.29239870  0.64927941  0.06208652     0.66700
H2110       H  0.33532610  0.66080049  0.07593690     0.15600
H2111       H  0.31755445  0.57462258  0.08705072     0.15300
N2112       N  0.36067648  0.58649171  0.10221283     0.74400
O2113       O  0.28031866  0.66224720  0.07582137    -0.39100
O2114       O  0.29415512  0.65513861  0.04048847    -0.39000
O2115       O  0.35903875  0.58161419  0.12407158    -0.39700
O2116       O  0.37301259  0.57323646  0.08899334    -0.39800
C2117       C  0.44494578  0.66393393  0.00501380    -0.12100
C2118       C  0.43093707  0.64671102  0.01643619     0.05000
C2119       C  0.41915800  0.62914412  0.00239945    -0.07300
C2120       C  0.42006642  0.63035639  0.97752791    -0.08100
C2121       C  0.43256229  0.64872783  0.96611135    -0.02600
C2122       C  0.44592983  0.66504926  0.98013459     0.04200
N2123       N  0.46053670  0.68293549  0.96953528     0.66700
H2124       H  0.45468560  0.67717491  0.01541176     0.15600
H2125       H  0.40992576  0.61742396  0.96712382     0.15300
N2126       N  0.40536165  0.61052598  0.01289383     0.74400
O2127       O  0.45353378  0.70437583  0.96918754    -0.39100
O2128       O  0.48223877  0.67855279  0.96642368    -0.39000
O2129       O  0.38309790  0.61267402  0.01370730    -0.39700
O2130       O  0.41447792  0.59009253  0.01561851    -0.39800
C2131       C  0.49429690  0.61636628  0.10949697    -0.12100
C2132       C  0.48207556  0.63568799  0.11963586     0.05000
C2133       C  0.49490365  0.65169541  0.13459464    -0.07300
C2134       C  0.51975097  0.64983634  0.13654176    -0.08100
C2135       C  0.53229462  0.63229061  0.12381131    -0.02600
C2136       C  0.51904782  0.61443884  0.11148666     0.04200
N2137       N  0.53040356  0.59517859  0.09929956     0.66700
H2138       H  0.48476878  0.60344451  0.09850799     0.15600
H2139       H  0.52937553  0.66354908  0.14641783     0.15300
N2140       N  0.48349274  0.67140158  0.14598195     0.74400
O2141       O  0.53220298  0.57516855  0.10951625    -0.39100
O2142       O  0.53260829  0.59620621  0.07696868    -0.39000
O2143       O  0.47955363  0.67038647  0.16804607    -0.39700
O2144       O  0.48291464  0.69144619  0.13569126    -0.39800
C2145       C  0.43119561  0.73960226  0.11562177    -0.12100
C2146       C  0.41379853  0.72894558  0.10095600     0.05000
C2147       C  0.39746979  0.74371726  0.08877752    -0.07300
C2148       C  0.39933073  0.76869483  0.09065186    -0.08100
C2149       C  0.41776442  0.77943578  0.10391372    -0.02600
C2150       C  0.43352791  0.76462973  0.11694417     0.04200
N2151       N  0.45206488  0.77464921  0.13148126     0.66700
H2152       H  0.44377167  0.72845661  0.12519746     0.15600
H2153       H  0.38695129  0.77973011  0.08069948     0.15300
N2154       N  0.37895258  0.73363564  0.07428694     0.74400
O2155       O  0.44858453  0.77783710  0.15344133    -0.39100
O2156       O  0.47300805  0.77501257  0.12376922    -0.39000
O2157       O  0.35817263  0.73252362  0.08235739    -0.39700
O2158       O  0.38211822  0.73116794  0.05219106    -0.39800
C2159       C  0.57494748  0.65300455  0.98898493    -0.12100
C2160       C  0.59369751  0.64124305  0.97759735     0.05000
C2161       C  0.60995652  0.62792161  0.99151002    -0.07300
C2162       C  0.60804382  0.62789977  0.01630653    -0.08100
C2163       C  0.59031088  0.64106739  0.02776520    -0.02600
C2164       C  0.57310409  0.65307403  0.01380387     0.04200
N2165       N  0.55389023  0.66578224  0.02437185     0.66700
H2166       H  0.56196711  0.66292370  0.97863200     0.15600
H2167       H  0.62131794  0.61838820  0.02667173     0.15300
N2168       N  0.62928580  0.61534961  0.98103554     0.74400
O2169       O  0.55584120  0.68805724  0.02780229    -0.39100
O2170       O  0.53350767  0.65634993  0.02425243    -0.39000
O2171       O  0.64983938  0.62434164  0.98224115    -0.39700
O2172       O  0.62697102  0.59333508  0.97636812    -0.39800
C2173       C  0.52525387  0.65843631  0.86315051    -0.12100
C2174       C  0.53578452  0.63932480  0.87558782     0.05000
C2175       C  0.52088317  0.62063067  0.88352032    -0.07300
C2176       C  0.49610824  0.62268859  0.88137268    -0.08100
C2177       C  0.48546211  0.64307272  0.87129660    -0.02600
C2178       C  0.50043523  0.66045280  0.86088893     0.04200
N2179       N  0.49090015  0.68077976  0.84876911     0.66700
H2180       H  0.53624157  0.67282053  0.85645678     0.15600
H2181       H  0.48514428  0.60873103  0.88891885     0.15300
N2182       N  0.53047961  0.59961891  0.89433623     0.74400
O2183       O  0.48865536  0.70028968  0.85994150    -0.39100
O2184       O  0.49063790  0.68092708  0.82627898    -0.39000
O2185       O  0.52869621  0.59684477  0.91655110    -0.39700
O2186       O  0.53489988  0.58169684  0.88136916    -0.39800
C2187       C  0.61594190  0.73895221  0.92721971    -0.12100
C2188       C  0.61134033  0.72798807  0.90501951     0.05000
C2189       C  0.61034163  0.74262226  0.88451382    -0.07300
C2190       C  0.61345656  0.76752592  0.88669039    -0.08100
C2191       C  0.61736908  0.77843846  0.90900283    -0.02600
C2192       C  0.61894611  0.76378446  0.92938510     0.04200
N2193       N  0.62407477  0.77368640  0.95241227     0.66700
H2194       H  0.61720296  0.72817908  0.94320057     0.15600
H2195       H  0.61194462  0.77847756  0.87084700     0.15300
N2196       N  0.60516064  0.73280995  0.86148410     0.74400
O2197       O  0.60733991  0.77717788  0.96675317    -0.39100
O2198       O  0.64516437  0.77345401  0.96021624    -0.39000
O2199       O  0.58467526  0.73554035  0.85260228    -0.39700
O2200       O  0.62207309  0.72730753  0.84799769    -0.39800
C2201       C  0.32712775  0.42278674  0.86470698    -0.12100
C2202       C  0.30707653  0.40948357  0.87184634     0.05000
C2203       C  0.30911970  0.38415978  0.87194589    -0.07300
C2204       C  0.33104931  0.37326047  0.86734954    -0.08100
C2205       C  0.35151754  0.38688537  0.86260015    -0.02600
C2206       C  0.34894999  0.41184568  0.85999926     0.04200
N2207       N  0.36860587  0.42678416  0.85407008     0.66700
H2208       H  0.32702000  0.44204345  0.86421514     0.15600
H2209       H  0.33229907  0.35397169  0.86897022     0.15300
N2210       N  0.28934123  0.36916900  0.87762332     0.74400
O2211       O  0.37129468  0.43279917  0.83261714    -0.39100
O2212       O  0.37851611  0.43907892  0.87029408    -0.39000
O2213       O  0.27857168  0.35784763  0.86123997    -0.39700
O2214       O  0.28422611  0.36520045  0.89907673    -0.39800
C2215       C  0.41717440  0.26698891  0.85730643    -0.12100
C2216       C  0.40485413  0.28049798  0.87425139     0.05000
C2217       C  0.39120348  0.26832300  0.89146274    -0.07300
C2218       C  0.39112443  0.24323830  0.89206203    -0.08100
C2219       C  0.40510220  0.22987090  0.87641504    -0.02600
C2220       C  0.41771668  0.24192920  0.85846679     0.04200
N2221       N  0.43143426  0.22908741  0.84144384     0.66700
H2222       H  0.42753044  0.27592030  0.84380657     0.15600
H2223       H  0.38144428  0.23425037  0.90603304     0.15300
N2224       N  0.37822896  0.28101251  0.90922134     0.74400
O2225       O  0.42239824  0.22450996  0.82124668    -0.39100
O2226       O  0.45368927  0.22833516  0.84404079    -0.39000
O2227       O  0.35603293  0.28306764  0.90688749    -0.39700
O2228       O  0.38771376  0.28461383  0.92941188    -0.39800
C2229       C  0.49647789  0.38933690  0.86473107    -0.12100
C2230       C  0.48536754  0.36887346  0.85500647     0.05000
C2231       C  0.49981844  0.35133897  0.84414595    -0.07300
C2232       C  0.52470881  0.35379200  0.84483474    -0.08100
C2233       C  0.53578498  0.37310149  0.85674971    -0.02600
C2234       C  0.52128614  0.39150710  0.86589364     0.04200
N2235       N  0.53134847  0.41211214  0.87737508     0.66700
H2236       H  0.48585525  0.40325538  0.87282712     0.15600
H2237       H  0.53541395  0.33930999  0.83789940     0.15300
N2238       N  0.48987796  0.32968462  0.83469067     0.74400
O2239       O  0.53511698  0.43067562  0.86522845    -0.39100
O2240       O  0.53051048  0.41384093  0.89978247    -0.39000
O2241       O  0.48976677  0.32629163  0.81244381    -0.39700
O2242       O  0.48705228  0.31203410  0.84835528    -0.39800
C2243       C  0.59501915  0.24582005  0.87326365    -0.12100
C2244       C  0.61455156  0.23517612  0.88480461     0.05000
C2245       C  0.63423922  0.24961556  0.89113300    -0.07300
C2246       C  0.63317922  0.27446969  0.88757861    -0.08100
C2247       C  0.61305834  0.28517136  0.87717865    -0.02600
C2248       C  0.59414613  0.27049484  0.86929933     0.04200
N2249       N  0.57295772  0.28051107  0.85933819     0.66700
H2250       H  0.57982424  0.23500138  0.86797568     0.15600
H2251       H  0.64786534  0.28557038  0.89368763     0.15300
N2252       N  0.65475321  0.23970556  0.90250230     0.74400
O2253       O  0.57078278  0.28209352  0.83699786    -0.39100
O2254       O  0.55477746  0.28233749  0.87213748    -0.39000
O2255       O  0.67347164  0.23706656  0.89065892    -0.39700
O2256       O  0.65589563  0.23911861  0.92496274    -0.39800
C2257       C  0.52446697  0.13524950  0.92229233    -0.12100
C2258       C  0.53602114  0.15734097  0.92556317     0.05000
C2259       C  0.52244840  0.17760389  0.93176568    -0.07300
C2260       C  0.49773422  0.17619365  0.93098035    -0.08100
C2261       C  0.48617818  0.15485791  0.92441883    -0.02600
C2262       C  0.49969879  0.13376218  0.92194384     0.04200
N2263       N  0.48881293  0.11103262  0.91741565     0.66700
H2264       H  0.53462646  0.11925490  0.91850288     0.15600
H2265       H  0.48760953  0.19238211  0.93398795     0.15300
N2266       N  0.53322719  0.20020815  0.93713330     0.74400
O2267       O  0.48687232  0.10360294  0.89622657    -0.39100
O2268       O  0.48708502  0.09625950  0.93426626    -0.39000
O2269       O  0.53412570  0.21598756  0.92113263    -0.39700
O2270       O  0.53592360  0.20636951  0.95866000    -0.39800
C2271       C  0.34179466  0.41187330  0.07782713    -0.12100
C2272       C  0.34563587  0.38761275  0.07239491     0.05000
C2273       C  0.32628194  0.37382753  0.06353293    -0.07300
C2274       C  0.30388109  0.38425314  0.06057813    -0.08100
C2275       C  0.30014363  0.40852709  0.06557491    -0.02600
C2276       C  0.31940662  0.42246609  0.07419163     0.04200
N2277       N  0.31649065  0.44723174  0.07986064     0.66700
H2278       H  0.35637961  0.42286667  0.08435070     0.15600
H2279       H  0.28937317  0.37337214  0.05366743     0.15300
N2280       N  0.32902218  0.34922226  0.05705792     0.74400
O2281       O  0.31150490  0.45310887  0.10094329    -0.39100
O2282       O  0.32483215  0.46283314  0.06604630    -0.39000
O2283       O  0.32263682  0.33315534  0.07138658    -0.39700
O2284       O  0.33246887  0.34379435  0.03551858    -0.39800
C2285       C  0.43794190  0.34786985  0.98873502    -0.12100
C2286       C  0.42648857  0.36708349  0.99988176     0.05000
C2287       C  0.41730889  0.38580345  0.98567657    -0.07300
C2288       C  0.41782033  0.38378215  0.96081500    -0.08100
C2289       C  0.42759462  0.36355522  0.94972772    -0.02600
C2290       C  0.43869282  0.34597290  0.96397968     0.04200
N2291       N  0.44999636  0.32553118  0.95380635     0.66700
H2292       H  0.44572769  0.33363505  0.99928671     0.15600
H2293       H  0.40974817  0.39778964  0.95018029     0.15300
N2294       N  0.40656602  0.40649261  0.99596818     0.74400
O2295       O  0.47224354  0.32565581  0.95149392    -0.39100
O2296       O  0.43894656  0.30585170  0.95285522    -0.39000
O2297       O  0.41840322  0.42567896  0.99740722    -0.39700
O2298       O  0.38425737  0.40737827  0.99742373    -0.39800
C2299       C  0.41000370  0.14304138  0.17046178    -0.12100
C2300       C  0.40327038  0.12969986  0.15021979     0.05000
C2301       C  0.39991770  0.10478247  0.15293500    -0.07300
C2302       C  0.40508078  0.09370688  0.17492543    -0.08100
C2303       C  0.41373460  0.10683584  0.19486817    -0.02600
C2304       C  0.41504164  0.13212666  0.19241690     0.04200
N2305       N  0.42272302  0.14717397  0.21170067     0.66700
H2306       H  0.41240532  0.16225131  0.16909980     0.15600
H2307       H  0.40280860  0.07458505  0.17557131     0.15300
N2308       N  0.39229640  0.09010868  0.13336620     0.74400
O2309       O  0.44346709  0.15570637  0.21142456    -0.39100
O2310       O  0.40727970  0.15752251  0.22412969    -0.39000
O2311       O  0.40736536  0.07756747  0.12253896    -0.39700
O2312       O  0.37055587  0.08497255  0.13118832    -0.39800
C2313       C  0.37744418  0.16562241  0.97699512    -0.12100
C2314       C  0.38980804  0.14749131  0.96493761     0.05000
C2315       C  0.39916651  0.12834217  0.97840808    -0.07300
C2316       C  0.39823636  0.12899396  0.00341328    -0.08100
C2317       C  0.38797136  0.14835654  0.01564795    -0.02600
C2318       C  0.37617817  0.16608323  0.00203449     0.04200
N2319       N  0.36424638  0.18559992  0.01319361     0.66700
H2320       H  0.36980671  0.18032057  0.96698374     0.15600
H2321       H  0.40715862  0.11498103  0.01333141     0.15300
N2322       N  0.41202033  0.10941436  0.96728461     0.74400
O2323       O  0.37477644  0.20547336  0.01544131    -0.39100
O2324       O  0.34196592  0.18478809  0.01507531    -0.39000
O2325       O  0.43423646  0.11122234  0.96528346    -0.39700
O2326       O  0.40228028  0.08917442  0.96473160    -0.39800
C2327       C  0.39301769  0.24971959  0.09799375    -0.12100
C2328       C  0.41315804  0.23716141  0.09023300     0.05000
C2329       C  0.43302310  0.25049645  0.08248897    -0.07300
C2330       C  0.43178594  0.27538288  0.08107659    -0.08100
C2331       C  0.41141292  0.28785898  0.08777112    -0.02600
C2332       C  0.39214870  0.27492645  0.09723099     0.04200
N2333       N  0.37132337  0.28686695  0.10527440     0.66700
H2334       H  0.37775975  0.23994506  0.10443844     0.15600
H2335       H  0.44697610  0.28506838  0.07429101     0.15300
N2336       N  0.45445756  0.23920478  0.07511816     0.74400
O2337       O  0.35282464  0.28645881  0.09239267    -0.39100
O2338       O  0.36964916  0.29218895  0.12706916    -0.39000
O2339       O  0.45845670  0.23698226  0.05313948    -0.39700
O2340       O  0.47154665  0.23772997  0.08976607    -0.39800
C2341       C  0.58183554  0.34751863  0.99254950    -0.12100
C2342       C  0.59722698  0.36295729  0.00512066     0.05000
C2343       C  0.61183813  0.37880131  0.99228979    -0.07300
C2344       C  0.61124871  0.37836518  0.96741284    -0.08100
C2345       C  0.59648689  0.36228363  0.95485223    -0.02600
C2346       C  0.58138216  0.34695295  0.96769227     0.04200
N2347       N  0.56608992  0.33006105  0.95597092     0.66700
H2348       H  0.57036675  0.33530432  0.00203895     0.15600
H2349       H  0.62293275  0.39036059  0.95791036     0.15300
N2350       N  0.62795400  0.39489247  0.00404243     0.74400
O2351       O  0.57284689  0.30865346  0.95370303    -0.39100
O2352       O  0.54434547  0.33489109  0.95348064    -0.39000
O2353       O  0.64938453  0.38887289  0.00671437    -0.39700
O2354       O  0.62235499  0.41664771  0.00623885    -0.39800
C2355       C  0.49408499  0.39469714  0.08617700    -0.12100
C2356       C  0.48145080  0.37679185  0.09824225     0.05000
C2357       C  0.49455613  0.35982984  0.11170517    -0.07300
C2358       C  0.51951653  0.36027957  0.11156023    -0.08100
C2359       C  0.53195398  0.37666656  0.09744007    -0.02600
C2360       C  0.51894795  0.39451186  0.08524979     0.04200
N2361       N  0.53051972  0.41165777  0.07049572     0.66700
H2362       H  0.48459032  0.40794178  0.07575049     0.15600
H2363       H  0.52910577  0.34623334  0.12079329     0.15300
N2364       N  0.48308925  0.34038341  0.12342489     0.74400
O2365       O  0.53154836  0.40790906  0.04833280    -0.39100
O2366       O  0.53433270  0.43249499  0.07846854    -0.39000
O2367       O  0.48075516  0.32064960  0.11257472    -0.39700
O2368       O  0.48128350  0.34088507  0.14581093    -0.39800
C2369       C  0.61291601  0.09182378  0.17724148    -0.12100
C2370       C  0.60802161  0.10648675  0.19728002     0.05000
C2371       C  0.60856715  0.13162466  0.19362505    -0.07300
C2372       C  0.61363662  0.14111315  0.17104436    -0.08100
C2373       C  0.61762401  0.12635672  0.15112097    -0.02600
C2374       C  0.61783069  0.10135715  0.15467289     0.04200
N2375       N  0.62180240  0.08510691  0.13538146     0.66700
H2376       H  0.61163188  0.07261742  0.17805750     0.15600
H2377       H  0.61305344  0.16037808  0.16888261     0.15300
N2378       N  0.60265396  0.14801314  0.21223682     0.74400
O2379       O  0.64257678  0.07766626  0.13175763    -0.39100
O2380       O  0.60444634  0.07370362  0.12649243    -0.39000
O2381       O  0.61891996  0.16046263  0.22179691    -0.39700
O2382       O  0.58138011  0.15460457  0.21433213    -0.39800
C2383       C  0.62445824  0.12320499  0.00497949    -0.12100
C2384       C  0.63510389  0.14176900  0.01828095     0.05000
C2385       C  0.64824309  0.15928251  0.00592121    -0.07300
C2386       C  0.64691046  0.16029569  0.98092707    -0.08100
C2387       C  0.63370334  0.14337652  0.96772938    -0.02600
C2388       C  0.62412865  0.12354422  0.97998245     0.04200
N2389       N  0.61306003  0.10407366  0.96753281     0.66700
H2390       H  0.61509621  0.10896122  0.01401259     0.15600
H2391       H  0.65529711  0.17516464  0.97192216     0.15300
N2392       N  0.66180681  0.17709986  0.01831357     0.74400
O2393       O  0.62502214  0.08544255  0.96354773    -0.39100
O2394       O  0.59070856  0.10293312  0.96642817    -0.39000
O2395       O  0.68290336  0.17238203  0.02437055    -0.39700
O2396       O  0.65558948  0.19868580  0.01671900    -0.39800
C2397       C  0.59219394  0.24405831  0.10257434    -0.12100
C2398       C  0.60930609  0.23228360  0.08879431     0.05000
C2399       C  0.62466660  0.24620753  0.07474541    -0.07300
C2400       C  0.62241577  0.27113837  0.07441732    -0.08100
C2401       C  0.60505985  0.28287186  0.08777240    -0.02600
C2402       C  0.58993980  0.26908567  0.10218594     0.04200
N2403       N  0.57121983  0.27992106  0.11529395     0.66700
H2404       H  0.58000660  0.23372868  0.11327230     0.15600
H2405       H  0.63409111  0.28137274  0.06306644     0.15300
N2406       N  0.64089902  0.23545632  0.05864021     0.74400
O2407       O  0.55103367  0.28205801  0.10557814    -0.39100
O2408       O  0.57314100  0.28168595  0.13765564    -0.39000
O2409       O  0.63655107  0.23706931  0.03660473    -0.39700
O2410       O  0.66193244  0.23164316  0.06555413    -0.39800
C2411       C  0.52272076  0.13552175  0.09321165    -0.12100
C2412       C  0.53463097  0.14737318  0.07480214     0.05000
C2413       C  0.52118691  0.15804781  0.05632858    -0.07300
C2414       C  0.49645907  0.15822957  0.05756171    -0.08100
C2415       C  0.48467888  0.14799664  0.07691238    -0.02600
C2416       C  0.49797246  0.13583181  0.09450917     0.04200
N2417       N  0.48691937  0.12547248  0.11483856     0.66700
H2418       H  0.53267166  0.12711427  0.10752800     0.15600
H2419       H  0.48645700  0.16718170  0.04360942     0.15300
N2420       N  0.53219738  0.16929797  0.03646998     0.74400
O2421       O  0.48445364  0.10303563  0.11590387    -0.39100
O2422       O  0.48472361  0.13786104  0.13354512    -0.39000
O2423       O  0.53386584  0.15781804  0.01714274    -0.39700
O2424       O  0.53415967  0.19181533  0.03625189    -0.39800
C2425       C  0.90507194  0.83352216  0.41231906    -0.12100
C2426       C  0.90651106  0.82014978  0.39118425     0.05000
C2427       C  0.89909032  0.83106424  0.36963067    -0.07300
C2428       C  0.88982325  0.85449261  0.36980859    -0.08100
C2429       C  0.88774558  0.86757206  0.39113859    -0.02600
C2430       C  0.89588169  0.85678248  0.41257629     0.04200
N2431       N  0.89430100  0.86873366  0.43508608     0.66700
H2432       H  0.91023449  0.82557509  0.42916807     0.15600
H2433       H  0.88400448  0.86237439  0.35313627     0.15300
N2434       N  0.90134070  0.81895344  0.34730843     0.74400
O2435       O  0.87635228  0.86517597  0.44785671    -0.39100
O2436       O  0.91284493  0.87748212  0.44451737    -0.39000
O2437       O  0.88289962  0.81147477  0.33666125    -0.39700
O2438       O  0.92023970  0.82142234  0.33571855    -0.39800
C2439       C  0.89282491  0.70801333  0.39348361    -0.12100
C2440       C  0.89709909  0.72884421  0.37986497     0.05000
C2441       C  0.89545578  0.72645995  0.35468458    -0.07300
C2442       C  0.89093464  0.70400364  0.34415773    -0.08100
C2443       C  0.88834057  0.68319921  0.35790749    -0.02600
C2444       C  0.88826989  0.68563810  0.38289104     0.04200
N2445       N  0.88580977  0.66527623  0.39800033     0.66700
H2446       H  0.89490638  0.70807848  0.41259292     0.15600
H2447       H  0.89095520  0.70267617  0.32488022     0.15300
N2448       N  0.89990353  0.74622662  0.33926147     0.74400
O2449       O  0.90417749  0.65459396  0.40533288    -0.39100
O2450       O  0.86639372  0.66184185  0.40844623    -0.39000
O2451       O  0.92028780  0.74875871  0.33052742    -0.39700
O2452       O  0.88252842  0.75673549  0.32957322    -0.39800
C2453       C  0.91949466  0.85394579  0.58633228    -0.12100
C2454       C  0.90709487  0.83400375  0.57669002     0.05000
C2455       C  0.88203790  0.83596555  0.57425439    -0.07300
C2456       C  0.87063788  0.85751087  0.57972520    -0.08100
C2457       C  0.88333721  0.87756292  0.58795769    -0.05000
C2458       C  0.90792748  0.87541229  0.59195673     0.04200
N2459       N  0.92187622  0.89542148  0.59978246     0.66700
H2460       H  0.93844443  0.85394085  0.58872756     0.15600
H2461       H  0.85163558  0.85875265  0.57675888     0.15300
N2462       N  0.86774907  0.81651222  0.56557791     0.74400
O2463       O  0.92827908  0.89677836  0.62136822    -0.39100
O2464       O  0.93237920  0.90803522  0.58453617    -0.39000
O2465       O  0.85561020  0.80472145  0.58023618    -0.39700
O2466       O  0.86189077  0.81591662  0.54380951    -0.39800
C2467       C  0.92057834  0.74123616  0.60449168    -0.12100
C2468       C  0.91780877  0.74382254  0.57977118     0.05000
C2469       C  0.91146560  0.72353010  0.56599809    -0.07300
C2470       C  0.90836231  0.70117168  0.57705620    -0.08100
C2471       C  0.91174918  0.69845342  0.60175936    -0.02600
C2472       C  0.91772257  0.71896832  0.61552723     0.04200
N2473       N  0.92070133  0.71770933  0.64081994     0.66700
H2474       H  0.92540315  0.75662740  0.61537241     0.15600
H2475       H  0.90381186  0.68574218  0.56613259     0.15300
N2476       N  0.90729033  0.72541360  0.54092570     0.74400
O2477       O  0.94137640  0.71641906  0.64959210    -0.39100
O2478       O  0.90383725  0.72408887  0.65399264    -0.39000
O2479       O  0.92284618  0.71799935  0.52670597    -0.39700
O2480       O  0.88637962  0.72863431  0.53334932    -0.39800
C2481       C  0.90257060  0.78337314  0.49406376    -0.12100
C2482       C  0.92498244  0.78250725  0.50521725     0.05000
C2483       C  0.94508109  0.77734790  0.49130989    -0.07300
C2484       C  0.94248135  0.77398184  0.46664071    -0.08100
C2485       C  0.92009413  0.77510882  0.45554082    -0.02600
C2486       C  0.89995487  0.77957807  0.46949687     0.04200
N2487       N  0.87687866  0.78144614  0.45889031     0.66700
H2488       H  0.88696288  0.78724298  0.50449584     0.15600
H2489       H  0.95808216  0.77044999  0.45607526     0.15300
N2490       N  0.96836855  0.77663651  0.50162170     0.74400
O2491       O  0.86261645  0.76407971  0.46050802    -0.39100
O2492       O  0.86897529  0.80186470  0.45351684    -0.39000
O2493       O  0.97786421  0.75660257  0.50567555    -0.39700
O2494       O  0.98133395  0.79505431  0.50065481    -0.39800
C2495       C  0.10564306  0.82077176  0.41779668    -0.12100
C2496       C  0.10123787  0.80800689  0.39668939     0.05000
C2497       C  0.10879899  0.81805999  0.37491259    -0.07300
C2498       C  0.12037531  0.84048719  0.37478248    -0.08100
C2499       C  0.12514982  0.85302868  0.39608001    -0.02600
C2500       C  0.11752055  0.84279451  0.41777072     0.04200
N2501       N  0.12104298  0.85469497  0.44010413     0.66700
H2502       H  0.10031336  0.81335955  0.43474082     0.15600
H2503       H  0.12600008  0.84791013  0.35794860     0.15300
N2504       N  0.10448178  0.80609350  0.35272606     0.74400
O2505       O  0.10379134  0.86563275  0.44917461    -0.39100
O2506       O  0.13809085  0.84836706  0.45340380    -0.39000
O2507       O  0.08716550  0.81258710  0.33987686    -0.39700
O2508       O  0.12097838  0.79417578  0.34340673    -0.39800
C2509       C  0.11010881  0.71482039  0.36652224    -0.12100
C2510       C  0.09674630  0.71592545  0.38759270     0.05000
C2511       C  0.09027447  0.69377876  0.39835288    -0.07300
C2512       C  0.09681131  0.67194678  0.38793972    -0.08100
C2513       C  0.10883079  0.67099117  0.36624614    -0.02600
C2514       C  0.11601538  0.69280547  0.35582695     0.04200
N2515       N  0.12912821  0.69310208  0.33420715     0.66700
H2516       H  0.11516740  0.73096446  0.35734429     0.15600
H2517       H  0.09082042  0.65550325  0.39616488     0.15300
N2518       N  0.07663763  0.69284919  0.41972879     0.74400
O2519       O  0.11823935  0.69649703  0.31474611    -0.39100
O2520       O  0.15123572  0.69669883  0.33525590    -0.39000
O2521       O  0.05471897  0.69732595  0.41902638    -0.39700
O2522       O  0.08552818  0.68357977  0.43825450    -0.39800
C2523       C  0.01163767  0.74563739  0.40928466    -0.12100
C2524       C  0.02514986  0.76593006  0.40368401     0.05000
C2525       C  0.01322551  0.78753802  0.39848621    -0.07300
C2526       C  0.98823211  0.78789370  0.39742072    -0.08100
C2527       C  0.97488084  0.76707790  0.40171073    -0.02600
C2528       C  0.98692046  0.74600150  0.40854839     0.04200
N2529       N  0.97442620  0.72503275  0.41593416     0.66700
H2530       H  0.02036828  0.72920922  0.41452629     0.15600
H2531       H  0.97925385  0.80435928  0.39266796     0.15300
N2532       N  0.02605363  0.80899119  0.39345143     0.74400
O2533       O  0.97361327  0.70706325  0.40222275    -0.39100
O2534       O  0.97048895  0.72216274  0.43783104    -0.39000
O2535       O  0.02929662  0.81486375  0.37204505    -0.39700
O2536       O  0.02854002  0.82460611  0.40962185    -0.39800
C2537       C  0.09647323  0.83257811  0.59422434    -0.12100
C2538       C  0.10428507  0.81835998  0.57519358     0.05000
C2539       C  0.12014962  0.82821654  0.55885244    -0.07300
C2540       C  0.12828135  0.85176212  0.56173223    -0.08100
C2541       C  0.12094711  0.86625180  0.58092981    -0.02600
C2542       C  0.10453134  0.85640349  0.59716783     0.04200
N2543       N  0.09545369  0.87028839  0.61640144     0.66700
H2544       H  0.08400810  0.82518280  0.60680424     0.15600
H2545       H  0.14088475  0.85853396  0.54895424     0.15300
N2546       N  0.12912906  0.81398759  0.53983955     0.74400
O2547       O  0.07604276  0.88116532  0.61353002    -0.39100
O2548       O  0.10300686  0.86639970  0.63727801    -0.39000
O2549       O  0.11967562  0.81515386  0.51938493    -0.39700
O2550       O  0.14452818  0.79821708  0.54422831    -0.39800
C2551       C  0.09849541  0.72495394  0.61538962    -0.12100
C2552       C  0.10783056  0.72952360  0.59277337     0.05000
C2553       C  0.12546074  0.71360605  0.58417812    -0.07300
C2554       C  0.12833345  0.69102727  0.59503240    -0.08100
C2555       C  0.11547157  0.68487116  0.61541964    -0.02600
C2556       C  0.10189792  0.70292019  0.62659400     0.04200
N2557       N  0.09026232  0.69887049  0.64871158     0.66700
H2558       H  0.08699453  0.73794711  0.62376248     0.15600
H2559       H  0.14040573  0.67814732  0.58734372     0.15300
N2560       N  0.14138066  0.72053356  0.56560886     0.74400
O2561       O  0.10035394  0.70542516  0.66785304    -0.39100
O2562       O  0.06824769  0.69464859  0.64864579    -0.39000
O2563       O  0.14994515  0.74146095  0.56532005    -0.39700
O2564       O  0.14870434  0.70521258  0.55083270    -0.39800
C2565       C  0.02546323  0.79852683  0.56413492    -0.12100
C2566       C  0.03308642  0.77486859  0.56752059     0.05000
C2567       C  0.01555288  0.75663457  0.56922130    -0.07300
C2568       C  0.99142454  0.76249867  0.56772567    -0.08100
C2569       C  0.98394261  0.78602491  0.56353428    -0.02600
C2570       C  0.00140287  0.80417686  0.56144990     0.04200
N2571       N  0.99542395  0.82810737  0.55476480     0.66700
H2572       H  0.03824710  0.81297726  0.56311024     0.15600
H2573       H  0.97844162  0.74828881  0.56952431     0.15300
N2574       N  0.02158678  0.73187363  0.57104918     0.74400
O2575       O  0.99623020  0.84441055  0.57040273    -0.39100
O2576       O  0.99695286  0.83388963  0.53312027    -0.39000
O2577       O  0.01744287  0.72095357  0.59021755    -0.39700
O2578       O  0.02452143  0.71989414  0.55219971    -0.39800
C2579       C  0.06675342  0.77325976  0.50045617    -0.12100
C2580       C  0.08831002  0.76672483  0.51151686     0.05000
C2581       C  0.10763261  0.76043546  0.49692628    -0.07300
C2582       C  0.10500024  0.76066158  0.47216806    -0.08100
C2583       C  0.08322360  0.76600208  0.46110164    -0.02600
C2584       C  0.06397553  0.77280483  0.47552490     0.04200
N2585       N  0.04114252  0.77789235  0.46547255     0.66700
H2586       H  0.05156800  0.77780587  0.51123450     0.15600
H2587       H  0.12016567  0.75589850  0.46144557     0.15300
N2588       N  0.13014593  0.75357037  0.50661295     0.74400
O2589       O  0.02564871  0.76152997  0.46479588    -0.39100
O2590       O  0.03459409  0.79942064  0.46384955    -0.39000
O2591       O  0.13515155  0.73156938  0.50719738    -0.39700
O2592       O  0.14696616  0.76849529  0.50603756    -0.39800
C2593       C  0.82259170  0.42569540  0.90293867    -0.12100
C2594       C  0.80318476  0.42538802  0.88689567     0.05000
C2595       C  0.80804090  0.42200106  0.86234919    -0.07300
C2596       C  0.83150887  0.41925472  0.85463460    -0.08100
C2597       C  0.85096959  0.42063288  0.87048644    -0.02600
C2598       C  0.84619936  0.42367775  0.89502993     0.04200
N2599       N  0.86501579  0.42536737  0.91221417     0.66700
H2600       H  0.81951876  0.42797105  0.92183397     0.15600
H2601       H  0.83451816  0.41747090  0.83566882     0.15300
N2602       N  0.78975667  0.42341873  0.84454993     0.74400
O2603       O  0.87240537  0.44579352  0.91859122    -0.39100
O2604       O  0.86972821  0.40747497  0.92506548    -0.39000
O2605       O  0.78507528  0.44345946  0.83535905    -0.39700
O2606       O  0.78323066  0.40457690  0.83380217    -0.39800
C2607       C  0.71050222  0.39689137  0.87457536    -0.12100
C2608       C  0.71102615  0.41917217  0.88659048     0.05000
C2609       C  0.68872310  0.42997941  0.89153604    -0.07300
C2610       C  0.66740835  0.41890916  0.88422985    -0.08100
C2611       C  0.66705114  0.39630393  0.87321013    -0.02600
C2612       C  0.68906193  0.38545085  0.86813894     0.04200
N2613       N  0.69017863  0.36220850  0.85749135     0.66700
H2614       H  0.72660201  0.38711946  0.87127609     0.15600
H2615       H  0.65084272  0.42742396  0.88894237     0.15300
N2616       N  0.68701598  0.45145703  0.90539624     0.74400
O2617       O  0.69466725  0.36044832  0.83557785    -0.39100
O2618       O  0.69307363  0.34419276  0.87070272    -0.39000
O2619       O  0.68084554  0.47060298  0.89520967    -0.39700
O2620       O  0.68462570  0.44979840  0.92766152    -0.39800
C2621       C  0.83579748  0.62969929  0.09927812    -0.12100
C2622       C  0.85195602  0.61066622  0.09847465     0.05000
C2623       C  0.84417113  0.58852069  0.08891868    -0.07300
C2624       C  0.82043470  0.58517403  0.08213251    -0.08100
C2625       C  0.80379304  0.60372546  0.08374768    -0.02600
C2626       C  0.81193941  0.62653402  0.09185007     0.04200
N2627       N  0.79660610  0.64685418  0.09213551     0.66700
H2628       H  0.84150088  0.64691382  0.10630030     0.15600
H2629       H  0.81503679  0.56754666  0.07602534     0.15300
N2630       N  0.86038794  0.56923466  0.08539341     0.74400
O2631       O  0.78935241  0.65467392  0.11188028    -0.39100
O2632       O  0.79616250  0.66052659  0.07428867    -0.39000
O2633       O  0.85971217  0.55132707  0.09900797    -0.39700
O2634       O  0.87107964  0.56760814  0.06581787    -0.39800
C2635       C  0.68610868  0.64075272  0.09999312    -0.12100
C2636       C  0.66779777  0.62536708  0.10723777     0.05000
C2637       C  0.67299769  0.60091126  0.10998008    -0.07300
C2638       C  0.69527210  0.59208644  0.10338424    -0.08100
C2639       C  0.71298882  0.60700458  0.09349498    -0.02600
C2640       C  0.70833160  0.63198145  0.09312446     0.04200
N2641       N  0.72547302  0.64880007  0.08475513     0.66700
H2642       H  0.68277487  0.65978177  0.09828509     0.15600
H2643       H  0.69740270  0.57307244  0.10498697     0.15300
N2644       N  0.65531080  0.58424819  0.11742662     0.74400
O2645       O  0.72363201  0.65649544  0.06370551    -0.39100
O2646       O  0.73725776  0.66088578  0.09984008    -0.39000
O2647       O  0.64367817  0.57265939  0.10183940    -0.39700
O2648       O  0.65579434  0.57675243  0.13860708    -0.39800
C2649       C  0.80569747  0.41939317  0.11031925    -0.12100
C2650       C  0.80170481  0.41442556  0.08610387     0.05000
C2651       C  0.82092370  0.40690425  0.07208261    -0.07300
C2652       C  0.84371875  0.40497138  0.08227055    -0.08100
C2653       C  0.84802000  0.41098455  0.10626491    -0.02600
C2654       C  0.82852436  0.41801784  0.12044289     0.04200
N2655       N  0.83148665  0.42429347  0.14502965     0.66700
H2656       H  0.79112178  0.42535268  0.12128590     0.15600
H2657       H  0.85830374  0.39961663  0.07103750     0.15300
N2658       N  0.81761836  0.40103888  0.04747328     0.74400
O2659       O  0.83300358  0.44612491  0.15079193    -0.39100
O2660       O  0.82613355  0.40915153  0.16072465    -0.39000
O2661       O  0.82419234  0.41574539  0.03184873    -0.39700
O2662       O  0.81386329  0.37951403  0.04158447    -0.39800
C2663       C  0.69132376  0.42263628  0.08924664    -0.12100
C2664       C  0.71102959  0.40833892  0.08297764     0.05000
C2665       C  0.70753546  0.38313105  0.08263980    -0.07300
C2666       C  0.68521323  0.37326878  0.08771608    -0.08100
C2667       C  0.66546649  0.38776435  0.09244848    -0.02600
C2668       C  0.66893312  0.41272223  0.09380635     0.04200
N2669       N  0.64962389  0.42858443  0.09828581     0.66700
H2670       H  0.69215757  0.44186392  0.08923896     0.15600
H2671       H  0.68305538  0.35401691  0.08631981     0.15300
N2672       N  0.72597636  0.36713012  0.07565717     0.74400
O2673       O  0.64681531  0.43672196  0.11907121    -0.39100
O2674       O  0.63940849  0.43875877  0.08096304    -0.39000
O2675       O  0.73650629  0.35498919  0.09144827    -0.39700
O2676       O  0.72674924  0.36019178  0.05425196    -0.39800
C2677       C  0.76212593  0.49584528  0.04772040    -0.12100
C2678       C  0.76185945  0.48293984  0.06907965     0.05000
C2679       C  0.76255585  0.49579956  0.09083924    -0.07300
C2680       C  0.76252295  0.52093114  0.09076225    -0.08100
C2681       C  0.76184301  0.53384233  0.06934637    -0.02600
C2682       C  0.76242715  0.52099980  0.04762817     0.04200
N2683       N  0.76139716  0.53302676  0.02525679     0.66700
H2684       H  0.76041169  0.48650067  0.03092469     0.15600
H2685       H  0.76220741  0.53045682  0.10763022     0.15300
N2686       N  0.76267658  0.48369269  0.11322437     0.74400
O2687       O  0.78043287  0.53657423  0.01418156    -0.39100
O2688       O  0.74194787  0.53361477  0.01392484    -0.39000
O2689       O  0.78215749  0.48094992  0.12416761    -0.39700
O2690       O  0.74359119  0.48200588  0.12465290    -0.39800
C2691       C  0.75411903  0.41011778  0.97053758    -0.12100
C2692       C  0.76208006  0.43166337  0.96022960     0.05000
C2693       C  0.77268182  0.44886096  0.97577157    -0.07300
C2694       C  0.77263656  0.44521113  0.00057745    -0.08100
C2695       C  0.76181787  0.42515512  0.01085047    -0.02600
C2696       C  0.75385089  0.40670663  0.99531388     0.04200
N2697       N  0.74640252  0.38392980  0.00412730     0.66700
H2698       H  0.74763680  0.39567847  0.95924147     0.15600
H2699       H  0.78048715  0.45887411  0.01180394     0.15300
N2700       N  0.78265453  0.47074441  0.96738036     0.74400
O2701       O  0.72483229  0.37799802  0.00217966    -0.39100
O2702       O  0.76175003  0.36775311  0.00699556    -0.39000
O2703       O  0.77345608  0.49013519  0.97421685    -0.39700
O2704       O  0.80429218  0.47089503  0.96184213    -0.39800
C2705       C  0.85504154  0.62033091  0.88798177    -0.12100
C2706       C  0.85420136  0.63590778  0.86846759     0.05000
C2707       C  0.83179258  0.64427908  0.86080728    -0.07300
C2708       C  0.81097930  0.63623828  0.87197750    -0.08100
C2709       C  0.81162292  0.61926038  0.89063120    -0.02600
C2710       C  0.83441194  0.61171736  0.89872117     0.04200
N2711       N  0.83726385  0.59466697  0.91747042     0.66700
H2712       H  0.87194754  0.61340229  0.89420361     0.15600
H2713       H  0.79447410  0.64314177  0.86511655     0.15300
N2714       N  0.82964009  0.66071434  0.84148286     0.74400
O2715       O  0.83876232  0.57274596  0.91214330    -0.39100
O2716       O  0.84618427  0.60173167  0.93698909    -0.39000
O2717       O  0.82328232  0.65299365  0.82122043    -0.39700
O2718       O  0.82786276  0.68278980  0.84599728    -0.39800
C2719       C  0.70159692  0.59666384  0.89897326    -0.12100
C2720       C  0.71965939  0.61414895  0.89777424     0.05000
C2721       C  0.71272033  0.63808186  0.89290444    -0.07300
C2722       C  0.68864418  0.64391859  0.89047750    -0.08100
C2723       C  0.67061668  0.62675890  0.89305124    -0.02600
C2724       C  0.67737360  0.60269189  0.89677730     0.04200
N2725       N  0.66000762  0.58427441  0.89958854     0.66700
H2726       H  0.70618131  0.57809519  0.90197180     0.15600
H2727       H  0.68403487  0.66252592  0.88759294     0.15300
N2728       N  0.72949911  0.65727242  0.89193195     0.74400
O2729       O  0.65426159  0.57146184  0.88185225    -0.39100
O2730       O  0.65514751  0.57710584  0.92026887    -0.39000
O2731       O  0.73404576  0.66647335  0.87198023    -0.39700
O2732       O  0.73395360  0.66914119  0.91064885    -0.39800
C2733       C  0.74175345  0.59806982  0.97416045    -0.12100
C2734       C  0.76503861  0.59919175  0.96550439     0.05000
C2735       C  0.78402423  0.59794696  0.98218373    -0.07300
C2736       C  0.77943330  0.59720285  0.00659507    -0.08100
C2737       C  0.75625578  0.59529424  0.01523901    -0.02600
C2738       C  0.73721214  0.59517579  0.99851751     0.04200
N2739       N  0.71335604  0.59029962  0.00545083     0.66700
H2740       H  0.72676995  0.59874084  0.96194255     0.15600
H2741       H  0.79445098  0.59735631  0.01878850     0.15300
N2742       N  0.80804405  0.59514982  0.97489038     0.74400
O2743       O  0.69855862  0.60720577  0.00573484    -0.39100
O2744       O  0.70577902  0.56902950  0.00429346    -0.39000
O2745       O  0.82289133  0.61136039  0.98010541    -0.39700
O2746       O  0.81546730  0.57437773  0.97015250    -0.39800
C2747       C  0.77102615  0.53097539  0.88567695    -0.12100
C2748       C  0.76525975  0.54349965  0.90665463     0.05000
C2749       C  0.75688561  0.53024944  0.92634131    -0.07300
C2750       C  0.75386705  0.50541927  0.92441225    -0.08100
C2751       C  0.76035395  0.49307372  0.90384400    -0.02600
C2752       C  0.76887767  0.50598581  0.88424504     0.04200
N2753       N  0.77539834  0.49403293  0.86277005     0.66700
H2754       H  0.77716807  0.54059459  0.87019072     0.15600
H2755       H  0.74656766  0.49558562  0.93921444     0.15300
N2756       N  0.75322461  0.54116106  0.94904859     0.74400
O2757       O  0.76018334  0.49157691  0.84626128    -0.39100
O2758       O  0.79709820  0.49130805  0.85820009    -0.39000
O2759       O  0.73270143  0.54106647  0.95781645    -0.39700
O2760       O  0.77091005  0.54456286  0.96263349    -0.39800
C2761       C  0.44226317  0.90219173  0.80843466    -0.12100
C2762       C  0.42176662  0.90338655  0.79408808     0.05000
C2763       C  0.39998755  0.89588780  0.80409488    -0.07300
C2764       C  0.39931005  0.88716161  0.82763700    -0.08100
C2765       C  0.42000921  0.88518151  0.84167517    -0.02600
C2766       C  0.44175019  0.89293253  0.83165715     0.04200
N2767       N  0.46375247  0.89109703  0.84445052     0.66700
H2768       H  0.45919185  0.90767176  0.80129488     0.15600
H2769       H  0.38246449  0.88134501  0.83475061     0.15300
N2770       N  0.37823821  0.89729363  0.79087933     0.74400
O2771       O  0.47604565  0.87239451  0.84210192    -0.39100
O2772       O  0.47358025  0.90993010  0.85228355    -0.39000
O2773       O  0.36823656  0.87818195  0.78400894    -0.39700
O2774       O  0.36631148  0.91635970  0.79169387    -0.39800
C2775       C  0.36873835  0.89624268  0.68091772    -0.12100
C2776       C  0.38072238  0.89094316  0.65974383     0.05000
C2777       C  0.40561986  0.88841576  0.66098131    -0.07300
C2778       C  0.41795475  0.89303528  0.68246654    -0.08100
C2779       C  0.40621600  0.90057655  0.70334727    -0.02600
C2780       C  0.38099820  0.90114174  0.70234751     0.04200
N2781       N  0.36734731  0.90790909  0.72258909     0.66700
H2782       H  0.34959691  0.89807601  0.68063746     0.15600
H2783       H  0.43697582  0.89191537  0.68175142     0.15300
N2784       N  0.41902742  0.88268617  0.64028011     0.74400
O2785       O  0.36076381  0.92937484  0.72467757    -0.39100
O2786       O  0.35628692  0.89187647  0.73373494    -0.39000
O2787       O  0.42958029  0.89924421  0.62937565    -0.39700
O2788       O  0.42513837  0.86125615  0.63673577    -0.39800
C2789       C  0.44064514  0.10206246  0.80302710    -0.12100
C2790       C  0.42130435  0.10149069  0.78730969     0.05000
C2791       C  0.39959117  0.11140303  0.79551675    -0.07300
C2792       C  0.39834099  0.12158654  0.81853085    -0.08100
C2793       C  0.41838276  0.12283925  0.83356754    -0.02600
C2794       C  0.43986487  0.11294182  0.82532942     0.04200
N2795       N  0.46123839  0.11398141  0.83922710     0.66700
H2796       H  0.45814430  0.09423096  0.79751107     0.15600
H2797       H  0.38164579  0.12908537  0.82442201     0.15300
N2798       N  0.37845615  0.11087997  0.78123362     0.74400
O2799       O  0.46827800  0.09529768  0.84965934    -0.39100
O2800       O  0.47588355  0.13066451  0.83548597    -0.39000
O2801       O  0.36410444  0.09370590  0.78370859    -0.39700
O2802       O  0.37101178  0.13018033  0.77225737    -0.39800
C2803       C  0.42203380  0.10999942  0.67728924    -0.12100
C2804       C  0.40967003  0.09954929  0.69649243     0.05000
C2805       C  0.38476291  0.09661329  0.69356622    -0.07300
C2806       C  0.37367084  0.10176989  0.67164875    -0.08100
C2807       C  0.38657251  0.11007000  0.65203398    -0.02600
C2808       C  0.41089104  0.11507004  0.65540005     0.04200
N2809       N  0.42508488  0.12392804  0.63641425     0.66700
H2810       H  0.44071774  0.11373983  0.67817732     0.15600
H2811       H  0.35480896  0.09828795  0.66976470     0.15300
N2812       N  0.37037563  0.08761678  0.71237295     0.74400
O2813       O  0.43077023  0.14580264  0.63624938    -0.39100
O2814       O  0.43675066  0.10930073  0.62401215    -0.39000
O2815       O  0.35845056  0.10222786  0.72453519    -0.39700
O2816       O  0.36431337  0.06584077  0.71209494    -0.39800
C2817       C  0.40703325  0.01485308  0.74325437    -0.12100
C2818       C  0.42874877  0.02677346  0.74670216     0.05000
C2819       C  0.44885254  0.01307983  0.75330331    -0.07300
C2820       C  0.44712636  0.98801491  0.75470803    -0.08100
C2821       C  0.42583374  0.97596577  0.74927183    -0.02600
C2822       C  0.40535235  0.98985261  0.74446678     0.04200
N2823       N  0.38255767  0.97906243  0.74097518     0.66700
H2824       H  0.39118080  0.02504071  0.73911293     0.15600
H2825       H  0.46303297  0.97791666  0.75864471     0.15300
N2826       N  0.47172669  0.02380524  0.75622857     0.74400
O2827       O  0.36971910  0.97550112  0.75890011    -0.39100
O2828       O  0.37287425  0.98003476  0.72060733    -0.39000
O2829       O  0.48059587  0.02567072  0.77690512    -0.39700
O2830       O  0.48534476  0.02432742  0.73858462    -0.39800
C2831       C  0.62248208  0.89433873  0.80640564    -0.12100
C2832       C  0.60609891  0.91333412  0.80435338     0.05000
C2833       C  0.59663517  0.92275114  0.82583995    -0.07300
C2834       C  0.60194052  0.91204762  0.84775284    -0.08100
C2835       C  0.61684149  0.89206652  0.84948009    -0.02600
C2836       C  0.62789789  0.88377782  0.82855045     0.04200
N2837       N  0.64401033  0.86409397  0.82912117     0.66700
H2838       H  0.63102902  0.88695033  0.79097595     0.15600
H2839       H  0.59361194  0.91916288  0.86358577     0.15300
N2840       N  0.58097791  0.94288991  0.82589606     0.74400
O2841       O  0.63633250  0.84331466  0.82450448    -0.39100
O2842       O  0.66598794  0.86820866  0.82782427    -0.39000
O2843       O  0.55910283  0.93938680  0.82903431    -0.39700
O2844       O  0.58947733  0.96340252  0.83027004    -0.39800
C2845       C  0.59198150  0.91524102  0.69258970    -0.12100
C2846       C  0.60826078  0.91612904  0.71173338     0.05000
C2847       C  0.63256404  0.91231285  0.70684574    -0.07300
C2848       C  0.63994973  0.90833298  0.68332603    -0.08100
C2849       C  0.62385570  0.90869176  0.66397226    -0.02600
C2850       C  0.59946650  0.91169819  0.66897460     0.04200
N2851       N  0.58201886  0.91194472  0.65032990     0.66700
H2852       H  0.57324542  0.91779543  0.69588679     0.15600
H2853       H  0.65878381  0.90651863  0.68010763     0.15300
N2854       N  0.65037808  0.91470636  0.72506035     0.74400
O2855       O  0.57040564  0.89307785  0.64580315    -0.39100
O2856       O  0.57416821  0.93177403  0.64302843    -0.39000
O2857       O  0.66026973  0.89615899  0.73316449    -0.39700
O2858       O  0.66033546  0.93475048  0.72822140    -0.39800
C2859       C  0.52412981  0.90647659  0.75625450    -0.12100
C2860       C  0.53557907  0.92799992  0.74978724     0.05000
C2861       C  0.52128762  0.94608197  0.73920873    -0.07300
C2862       C  0.49642582  0.94314346  0.73759344    -0.08100
C2863       C  0.48517751  0.92226946  0.74552680    -0.02600
C2864       C  0.49943594  0.90340345  0.75397086     0.04200
N2865       N  0.48925370  0.88077875  0.75991638     0.66700
H2866       H  0.53446398  0.89166412  0.76314581     0.15600
H2867       H  0.48582376  0.95726162  0.72971777     0.15300
N2868       N  0.53119698  0.96772626  0.73021871     0.74400
O2869       O  0.48838514  0.86451969  0.74423747    -0.39100
O2870       O  0.48733554  0.87512845  0.78155218    -0.39000
O2871       O  0.53735684  0.96822612  0.70867201    -0.39700
O2872       O  0.52559285  0.98715855  0.74016066    -0.39800
C2873       C  0.60056138  0.13663705  0.79200377    -0.12100
C2874       C  0.60439452  0.11202142  0.78908162     0.05000
C2875       C  0.61088766  0.09826311  0.80920267    -0.07300
C2876       C  0.61349423  0.10936728  0.83165885    -0.08100
C2877       C  0.60886821  0.13388458  0.83462720    -0.02600
C2878       C  0.60239323  0.14754011  0.81444454     0.04200
N2879       N  0.59760404  0.17258737  0.81636360     0.66700
H2880       H  0.59536919  0.14742967  0.77681077     0.15600
H2881       H  0.61816638  0.09857154  0.84700504     0.15300
N2882       N  0.61498352  0.07309474  0.80721055     0.74400
O2883       O  0.61409219  0.18740464  0.81266589    -0.39100
O2884       O  0.57636683  0.17968477  0.81580361    -0.39000
O2885       O  0.63604243  0.06554144  0.80651962    -0.39700
O2886       O  0.59854182  0.05869916  0.81238425    -0.39800
C2887       C  0.59855833  0.11930277  0.67942980    -0.12100
C2888       C  0.61242708  0.11018465  0.69855806     0.05000
C2889       C  0.63735020  0.10921425  0.69516145    -0.07300
C2890       C  0.64725511  0.11623139  0.67338394    -0.08100
C2891       C  0.63307447  0.12404469  0.65417986    -0.02600
C2892       C  0.60845950  0.12588539  0.65761665     0.04200
N2893       N  0.59279164  0.13265068  0.63861569     0.66700
H2894       H  0.57960420  0.12056285  0.68011458     0.15600
H2895       H  0.66625342  0.11445306  0.67120261     0.15300
N2896       N  0.65301225  0.10030157  0.71325147     0.74400
O2897       O  0.58311920  0.11653593  0.62596367    -0.39100
O2898       O  0.58427903  0.15352127  0.63838804    -0.39000
O2899       O  0.66070498  0.07917534  0.71144898    -0.39700
O2900       O  0.66431621  0.11508329  0.72615827    -0.39800
C2901       C  0.61554199  0.02341082  0.74339580    -0.12100
C2902       C  0.59506553  0.03665108  0.74880351     0.05000
C2903       C  0.57519148  0.02418675  0.75795375    -0.07300
C2904       C  0.57591128  0.99935970  0.76055532    -0.08100
C2905       C  0.59572195  0.98626693  0.75394923    -0.02600
C2906       C  0.61607521  0.99844342  0.74610418     0.04200
N2907       N  0.63746112  0.98586223  0.74111471     0.66700
H2908       H  0.63130991  0.03248328  0.73716721     0.15600
H2909       H  0.56078052  0.99013867  0.76798111     0.15300
N2910       N  0.55355275  0.03585677  0.76373494     0.74400
O2911       O  0.64281794  0.98184467  0.71970427    -0.39100
O2912       O  0.65340855  0.98469838  0.75704324    -0.39000
O2913       O  0.53714443  0.03592976  0.74828471    -0.39700
O2914       O  0.54810390  0.03767942  0.78541325    -0.39800
C2915       C  0.52633725  0.08040826  0.72239208    -0.12100
C2916       C  0.53760960  0.08839164  0.74345214     0.05000
C2917       C  0.52377145  0.09163040  0.76399519    -0.07300
C2918       C  0.49909772  0.08867291  0.76237833    -0.08100
C2919       C  0.48756854  0.08232708  0.74100559    -0.02600
C2920       C  0.50181319  0.07709569  0.72098050     0.04200
N2921       N  0.49190414  0.06787390  0.69916137     0.66700
H2922       H  0.53677439  0.07634070  0.70674886     0.15600
H2923       H  0.48834358  0.09272386  0.77868637     0.15300
N2924       N  0.53423314  0.09929067  0.78606550     0.74400
O2925       O  0.49018865  0.08160927  0.68143046    -0.39100
O2926       O  0.49226714  0.04556591  0.69550756    -0.39000
O2927       O  0.53401903  0.12127329  0.79134080    -0.39700
O2928       O  0.53733519  0.08418761  0.80246399    -0.39800
loop_ 
_geom_bond_atom_site_label_1 
_geom_bond_atom_site_label_2 
_geom_bond_distance 
_geom_bond_site_symmetry_2 
_ccdc_geom_bond_type 
C1            C2   1.543       .  S
C1            C7   1.536       .  S
C1            C5   1.546       .  S
C1         C2888   1.553       .  S
C2            H9   1.086       .  S
C2            C3   1.373       .  D
C3            C4   1.539       .  S
C3         C2902   1.496       .  S
C4            C8   1.543       .  S
C4            C6   1.536       .  S
C4           H10   1.103       .  S
C5           H11   1.077       .  S
C5            C6   1.363       .  D
C6         C2916   1.491       .  S
C7           H12   1.085       .  S
C7            C8   1.371       .  D
C8         C2874   1.489       .  S
C13          C14   1.552       .  S
C13          C19   1.539       .  S
C13          C17   1.530       .  S
C13        C2832   1.545       .  S
C14          H21   1.079       .  S
C14          C15   1.374       .  D
C15          C16   1.547       .  S
C15        C2846   1.502       .  S
C16          C20   1.554       .  S
C16          C18   1.545       .  S
C16          H22   1.105       .  S
C17          H23   1.086       .  S
C17          C18   1.357       .  D
C18        C2905   1.473       .  S
C19          H24   1.086       .  S
C19          C20   1.370       .  D
C20        C2860   1.518       .  S
C25          C26   1.537       .  S
C25          C31   1.540       .  S
C25          C29   1.544       .  S
C25        C2804   1.551       .  S
C26          H33   1.082       .  S
C26          C27   1.372       .  D
C27          C28   1.563       .  S
C27        C2790   1.509       .  S
C28          C32   1.538       .  S
C28          C30   1.544       .  S
C28          H34   1.108       .  S
C29          H35   1.076       .  S
C29          C30   1.362       .  D
C30        C2919   1.497       .  S
C31          H36   1.086       .  S
C31          C32   1.369       .  D
C32        C2818   1.496       .  S
C37          C38   1.537       .  S
C37          C43   1.545       .  S
C37          C41   1.554       .  S
C37        C2779   1.553       .  S
C38          H45   1.085       .  S
C38          C39   1.365       .  D
C39          C40   1.545       .  S
C39        C2821   1.499       .  S
C40          C44   1.552       .  S
C40          C42   1.544       .  S
C40          H46   1.110       .  S
C41          H47   1.080       .  S
C41          C42   1.364       .  D
C42        C2863   1.497       .  S
C43          H48   1.084       .  S
C43          C44   1.375       .  D
C44        C2762   1.506       .  S
C49          C50   1.550       .  S
C49          C55   1.536       .  S
C49          C53   1.542       .  S
C49        C2709   1.550       .  S
C50          H57   1.076       .  S
C50          C51   1.372       .  D
C51          C52   1.549       .  S
C51        C2720   1.512       .  S
C52          C56   1.541       .  S
C52          C54   1.542       .  S
C52          H58   1.104       .  S
C53          H59   1.084       .  S
C53          C54   1.370       .  D
C54        C2734   1.499       .  S
C55          H60   1.085       .  S
C55          C56   1.366       .  D
C56        C2748   1.496       .  S
C61          C62   1.542       .  S
C61          C67   1.539       .  S
C61          C65   1.547       .  S
C61        C2664   1.550       .  S
C62          H69   1.085       .  S
C62          C63   1.371       .  D
C63          C64   1.543       .  S
C63        C2650   1.488       .  S
C64          C68   1.549       .  S
C64          C66   1.545       .  S
C64          H70   1.109       .  S
C65          H71   1.080       .  S
C65          C66   1.361       .  D
C66        C2678   1.493       .  S
C67          H72   1.083       .  S
C67          C68   1.370       .  D
C68        C2695   1.507       .  S
C73          C74   1.541       .  S
C73          C79   1.544       .  S
C73          C77   1.549       .  S
C73        C2639   1.551       .  S
C74          H81   1.082       .  S
C74          C75   1.368       .  D
C75          C76   1.543       .  S
C75        C2737   1.497       .  S
C76          C80   1.554       .  S
C76          C78   1.534       .  S
C76          H82   1.107       .  S
C77          H83   1.078       .  S
C77          C78   1.361       .  D
C78        C2681   1.494       .  S
C79          H84   1.083       .  S
C79          C80   1.374       .  D
C80        C2625   1.506       .  S
C85          C86   1.535       .  S
C85          C91   1.534       .  S
C85          C89   1.552       .  S
C85        C2608   1.552       .  S
C86          H93   1.084       .  S
C86          C87   1.360       .  D
C87          C88   1.543       .  S
C87        C2751   1.477       .  S
C88          C92   1.553       .  S
C88          C90   1.549       .  S
C88          H94   1.103       .  S
C89          H95   1.078       .  S
C89          C90   1.375       .  D
C90        C2594   1.511       .  S
C91          H96   1.086       .  S
C91          C92   1.372       .  D
C92        C2692   1.516       .  S
C97          C98   1.547       .  S
C97         C103   1.535       .  S
C97         C101   1.545       .  S
C97        C2552   1.539       .  S
C98         H105   1.081       .  S
C98          C99   1.368       .  D
C99         C100   1.547       .  S
C99        C2566   1.500       .  S
C100        C104   1.541       .  S
C100        C102   1.539       .  S
C100        H106   1.109       .  S
C101        H107   1.081       .  S
C101        C102   1.365       .  D
C102       C2580   1.493       .  S
C103        H108   1.086       .  S
C103        C104   1.364       .  D
C104       C2538   1.486       .  S
C109        C110   1.547       .  S
C109        C115   1.530       .  S
C109        C113   1.533       .  S
C109       C2510   1.544       .  S
C110        H117   1.082       .  S
C110        C111   1.374       .  D
C111        C112   1.553       .  S
C111       C2496   1.495       .  S
C112        C116   1.541       .  S
C112        C114   1.541       .  S
C112        H118   1.108       .  S
C113        H119   1.085       .  S
C113        C114   1.364       .  D
C114       C2583   1.491       .  S
C115        H120   1.087       .  S
C115        C116   1.366       .  D
C116       C2524   1.491       .  S
C121        C122   1.537       .  S
C121        C127   1.536       .  S
C121        C125   1.549       .  S
C121       C2454   1.543       .  S
C122        H129   1.086       .  S
C122        C123   1.368       .  D
C123        C124   1.544       .  S
C123       C2468   1.492       .  S
C124        C128   1.536       .  S
C124        C126   1.545       .  S
C124        H130   1.108       .  S
C125        H131   1.077       .  S
C125        C126   1.366       .  D
C126       C2569   1.494       .  S
C127        H132   1.086       .  S
C127        C128   1.365       .  D
C128       C2482   1.486       .  S
C133        C134   1.535       .  S
C133        C139   1.545       .  S
C133        C137   1.552       .  S
C133       C2440   1.546       .  S
C134        H141   1.086       .  S
C134        C135   1.362       .  D
C135        C136   1.534       .  S
C135       C2527   1.489       .  S
C136        C140   1.551       .  S
C136        C138   1.532       .  S
C136        H142   1.111       .  S
C137        H143   1.082       .  S
C137        C138   1.363       .  D
C138       C2485   1.481       .  S
C139        H144   1.083       .  S
C139        C140   1.375       .  D
C140       C2426   1.500       .  S
In145       O147   2.236       .  S
In145       O148   2.256       .  S
In145       O156   2.257       .  S
In145       O150   2.297       .  S
In145       O152   2.284       .  S
In145       O153   2.238       .  S
In145       O154   2.244       .  S
In145       O157   2.266       .  S
C146        O152   1.261       .  A
C146        O154   1.259       .  A
C146       C2384   1.491       .  S
O147        C155   1.259       .  A
O148        C155   1.260       .  A
C149        O156   1.258       .  A
C149        O150   1.262       .  A
C149       C2373   1.500       .  S
C151        O153   1.261       .  A
C151        O157   1.264       .  A
C151       C2398   1.484       .  S
C155       C2412   1.478       .  S
In158       O160   2.246       .  S
In158       O161   2.223       .  S
In158       O169   2.244       .  S
In158       O163   2.279       .  S
In158       O165   2.247       .  S
In158       O166   2.226       .  S
In158       O167   2.275       .  S
In158       O170   2.275       .  S
C159        O165   1.256       .  A
C159        O167   1.264       .  A
C159       C2359   1.489       .  S
O160        C168   1.260       .  A
O161        C168   1.261       .  A
C162        O169   1.256       .  A
C162        O163   1.262       .  A
C162       C2667   1.492       .  S
C164        O166   1.260       .  A
C164        O170   1.265       .  A
C164       C2401   1.482       .  S
C168       C2342   1.474       .  S
In171       O173   2.275       .  S
In171       O174   2.232       .  S
In171       O182   2.241       .  S
In171       O176   2.303       .  S
In171       O178   2.298       .  S
In171       O179   2.224       .  S
In171       O180   2.250       .  S
In171       O183   2.253       .  S
C172        O178   1.262       .  A
C172        O180   1.257       .  A
C172       C2317   1.498       .  S
O173        C181   1.268       .  A
O174        C181   1.259       .  A
C175        O182   1.258       .  A
C175        O176   1.265       .  A
C175       C2300   1.499       .  S
C177        O179   1.259       .  A
C177        O183   1.259       .  A
C177       C2415   1.472       .  S
C181       C2328   1.490       .  S
In184       O186   2.224       .  S
In184       O187   2.287       .  S
In184       O195   2.282       .  S
In184       O189   2.205       .  S
In184       O191   2.217       .  S
In184       O192   2.255       .  S
In184       O193   2.263       .  S
In184       O196   2.288       .  S
C185        O191   1.260       .  A
C185        O193   1.261       .  A
C185       C2286   1.477   1_554  S
O186        C194   1.256       .  A
O187        C194   1.269       .  A
C188        O195   1.267       .  A
C188        O189   1.262       .  A
C188       C2331   1.480       .  S
C190        O192   1.258       .  A
C190        O196   1.259       .  A
C190       C2356   1.496       .  S
C194       C2272   1.491       .  S
In197       O199   2.237       .  S
In197       O200   2.291       .  S
In197       O208   2.280       .  S
In197       O202   2.204       .  S
In197       O204   2.242       .  S
In197       O205   2.264       .  S
In197       O206   2.233       .  S
In197       O209   2.257       .  S
C198        O204   1.259       .  A
C198        O206   1.261       .  A
C198       C2258   1.476       .  S
O199        C207   1.254       .  A
O200        C207   1.265       .  A
C201        O208   1.268       .  A
C201        O202   1.259       .  A
C201       C2244   1.481       .  S
C203        O205   1.260       .  A
C203        O209   1.262       .  A
C203       C2387   1.492       .  S
C207       C2877   1.483       .  S
In210       O212   2.243       .  S
In210       O213   2.301       .  S
In210       O221   2.252       .  S
In210       O215   2.230       .  S
In210       O217   2.237       .  S
In210       O218   2.304       .  S
In210       O219   2.242       .  S
In210       O222   2.250       .  S
C211        O217   1.258       .  A
C211        O219   1.261       .  A
C211       C2289   1.477       .  S
O212        C220   1.257       .  A
O213        C220   1.264       .  A
C214        O221   1.269       .  A
C214        O215   1.261       .  A
C214       C2216   1.483       .  S
C216        O218   1.262       .  A
C216        O222   1.253       .  A
C216       C2205   1.496       .  S
C220       C2230   1.496       .  S
In223       O225   2.263       .  S
In223       O226   2.235       .  S
In223       O234   2.282       .  S
In223       O228   2.267       .  S
In223       O230   2.277       .  S
In223       O231   2.249       .  S
In223       O232   2.264       .  S
In223       O235   2.226       .  S
C224        O230   1.263       .  A
C224        O232   1.258       .  A
C224       C2233   1.494       .  S
O225        C233   1.264       .  A
O226        C233   1.259       .  A
C227        O234   1.258       .  A
C227        O228   1.261       .  A
C227       C2611   1.499       .  S
C229        O231   1.260       .  A
C229        O235   1.258       .  A
C229       C2345   1.474       .  S
C233       C2247   1.477       .  S
In236       O238   2.258       .  S
In236       O239   2.244       .  S
In236       O247   2.246       .  S
In236       O241   2.286       .  S
In236       O243   2.220       .  S
In236       O244   2.218       .  S
In236       O245   2.294       .  S
In236       O248   2.246       .  S
C237        O243   1.254       .  A
C237        O245   1.268       .  A
C237       C2793   1.490       .  S
O238        C246   1.265       .  A
O239        C246   1.260       .  A
C240        O247   1.258       .  A
C240        O241   1.264       .  A
C240       C2314   1.491       .  S
C242        O244   1.262       .  A
C242        O248   1.260       .  A
C242       C2261   1.475       .  S
C246       C2219   1.479       .  S
In249       O251   2.256       .  S
In249       O252   2.232       .  S
In249       O260   2.235       .  S
In249       O254   2.312       .  S
In249       O256   2.278       .  S
In249       O257   2.237       .  S
In249       O258   2.277       .  S
In249       O261   2.282       .  S
C250        O256   1.260       .  A
C250        O258   1.257       .  A
C250       C2174   1.497       .  S
O251        C259   1.260       .  A
O252        C259   1.261       .  A
C253        O260   1.256       .  A
C253        O254   1.264       .  A
C253       C2723   1.497       .  S
C255        O257   1.262       .  A
C255        O261   1.266       .  A
C255       C2188   1.492       .  S
C259       C2160   1.479       .  S
In262       O264   2.239       .  S
In262       O265   2.248       .  S
In262       O273   2.225       .  S
In262       O267   2.304       .  S
In262       O269   2.247       .  S
In262       O270   2.243       .  S
In262       O271   2.293       .  S
In262       O274   2.265       .  S
C263        O269   1.258       .  A
C263        O271   1.261       .  A
C263       C2132   1.492       .  S
O264        C272   1.263       .  A
O265        C272   1.260       .  A
C266        O273   1.255       .  A
C266        O267   1.264       .  A
C266       C2104   1.494       .  S
C268        O270   1.261       .  A
C268        O274   1.265       .  A
C268       C2146   1.479       .  S
C272       C2118   1.482       .  S
In275       O277   2.221       .  S
In275       O278   2.297       .  S
In275       O286   2.287       .  S
In275       O280   2.198       .  S
In275       O282   2.247       .  S
In275       O283   2.273       .  S
In275       O284   2.235       .  S
In275       O287   2.258       .  S
C276        O282   1.259       .  A
C276        O284   1.260       .  A
C276       C2163   1.476       .  S
O277        C285   1.255       .  A
O278        C285   1.267       .  A
C279        O286   1.268       .  A
C279        O280   1.260       .  A
C279       C2090   1.483       .  S
C281        O283   1.263       .  A
C281        O287   1.257       .  A
C281       C2135   1.495       .  S
C285       C2636   1.490       .  S
In288       O290   2.216       .  S
In288       O291   2.330       .  S
In288       O299   2.287       .  S
In288       O293   2.201       .  S
In288       O295   2.257       .  S
In288       O296   2.279       .  S
In288       O297   2.239       .  S
In288       O300   2.261       .  S
C289        O295   1.260       .  A
C289        O297   1.261       .  A
C289       C2121   1.481       .  S
O290        C298   1.255       .  A
O291        C298   1.269       .  A
C292        O299   1.268       .  A
C292        O293   1.261       .  A
C292       C2076   1.483       .  S
C294        O296   1.259       .  A
C294        O300   1.261       .  A
C294       C2177   1.497       .  S
C298       C2065   1.500       .  S
In301       O303   2.238       .  S
In301       O304   2.217       .  S
In301       O312   2.248       .  S
In301       O306   2.303       .  S
In301       O308   2.296       .  S
In301       O309   2.249       .  S
In301       O310   2.291       .  S
In301       O313   2.255       .  S
C302        O308   1.264       .  A
C302        O310   1.257       .  A
C302       C2048   1.505       .  S
O303        C311   1.260       .  A
O304        C311   1.262       .  A
C305        O312   1.254       .  A
C305        O306   1.268       .  A
C305       C2020   1.502       .  S
C307        O309   1.262       .  A
C307        O313   1.266       .  A
C307       C2149   1.484       .  S
C311       C2034   1.464       .  S
In314       O316   2.253       .  S
In314       O317   2.259       .  S
In314       O325   2.251       .  S
In314       O319   2.258       .  S
In314       O321   2.221       .  S
In314       O322   2.234       .  S
In314       O323   2.262       .  S
In314       O326   2.299       .  S
C315        O321   1.258       .  A
C315        O323   1.259       .  A
C315       C2006   1.473       .  S
O316        C324   1.257       .  A
O317        C324   1.261       .  A
C318        O325   1.261       .  A
C318        O319   1.264       .  A
C318       C2191   1.485       .  S
C320        O322   1.256       .  A
C320        O326   1.262       .  A
C320       C2835   1.493       .  S
C324       C1992   1.485       .  S
In327       O329   2.236       .  S
In327       O330   2.292       .  S
In327       O338   2.271       .  S
In327       O332   2.217       .  S
In327       O334   2.246       .  S
In327       O335   2.281       .  S
In327       O336   2.233       .  S
In327       O339   2.236       .  S
C328        O334   1.259       .  A
C328        O336   1.258       .  A
C328       C2037   1.470       .  S
O329        C337   1.258       .  A
O330        C337   1.265       .  A
C331        O338   1.268       .  A
C331        O332   1.259       .  A
C331       C2093   1.482       .  S
C333        O335   1.261       .  A
C333        O339   1.257       .  A
C333       C1995   1.489       .  S
C337       C1981   1.494       .  S
In340       O342   2.250       .  S
In340       O343   2.311       .  S
In340       O351   2.263       .  S
In340       O345   2.219       .  S
In340       O347   2.229       .  S
In340       O348   2.268       .  S
In340       O349   2.225       .  S
In340       O352   2.298       .  S
C341        O347   1.260       .  A
C341        O349   1.262       .  A
C341       C2009   1.471       .  S
O342        C350   1.252       .  A
O343        C350   1.269       .  A
C344        O351   1.265       .  A
C344        O345   1.257       .  A
C344       C2079   1.470       .  S
C346        O348   1.258       .  A
C346        O352   1.268       .  A
C346       C2051   1.502       .  S
C350       C2765   1.502       .  S
C353        C354   1.544       .  S
C353        C359   1.534       .  S
C353        C357   1.541       .  S
C353       C2370   1.555       .  S
C354        H361   1.084       .  S
C354        C355   1.379       .  D
C355        C356   1.550       .  S
C355       C1936   1.505       .  S
C356        C360   1.543       .  S
C356        C358   1.538       .  S
C356        H362   1.106       .  S
C357        H363   1.081       .  S
C357        C358   1.360       .  D
C358       C1950   1.479       .  S
C359        H364   1.087       .  S
C359        C360   1.370       .  D
C360       C1964   1.495       .  S
C365        C366   1.549       .  S
C365        C371   1.541       .  S
C365        C369   1.539       .  S
C365       C1894   1.552       .  S
C366        H373   1.081       .  S
C366        C367   1.370       .  D
C367        C368   1.552       .  S
C367       C2023   1.510       .  S
C368        C372   1.553       .  S
C368        C370   1.549       .  S
C368        H374   1.104       .  S
C369        H375   1.083       .  S
C369        C370   1.366       .  D
C370       C1922   1.501       .  S
C371        H376   1.081       .  S
C371        C372   1.372       .  D
C372       C1908   1.515       .  S
C377        C378   1.536       .  S
C377        C383   1.536       .  S
C377        C381   1.553       .  S
C377       C1978   1.550       .  S
C378        H385   1.079       .  S
C378        C379   1.367       .  D
C379        C380   1.552       .  S
C379       C1925   1.502       .  S
C380        C384   1.548       .  S
C380        C382   1.534       .  S
C380        H386   1.109       .  S
C381        H387   1.080       .  S
C381        C382   1.367       .  D
C382       C1953   1.489       .  S
C383        H388   1.085       .  S
C383        C384   1.370       .  D
C384       C1880   1.498       .  S
C389        C390   1.539       .  S
C389        C395   1.543       .  S
C389        C393   1.553       .  S
C389       C2303   1.553       .  S
C390        H397   1.085       .  S
C390        C391   1.365       .  D
C391        C392   1.542       .  S
C391       C1967   1.496       .  S
C392        C396   1.541       .  S
C392        C394   1.545       .  S
C392        H398   1.110       .  S
C393        H399   1.077       .  S
C393        C394   1.371       .  D
C394       C1911   1.502       .  S
C395        H400   1.085       .  S
C395        C396   1.370       .  D
C396       C1866   1.494       .  S
In401       O403   2.287       .  S
In401       O404   2.211       .  S
In401       O412   2.278       .  S
In401       O406   2.286       .  S
In401       O408   2.284       .  S
In401       O409   2.221       .  S
In401       O410   2.242       .  S
In401       O413   2.265       .  S
C402        O408   1.267       .  A
C402        O410   1.257       .  A
C402       C2471   1.491       .  S
O403        C411   1.266       .  A
O404        C411   1.261       .  A
C405        O412   1.258       .  A
C405        O406   1.261       .  A
C405       C1838   1.503       .  S
C407        O409   1.260       .  A
C407        O413   1.261       .  A
C407       C1824   1.478       .  S
C411       C1852   1.480       .  S
In414       O416   2.273       .  S
In414       O417   2.217       .  S
In414       O425   2.297       .  S
In414       O419   2.226       .  S
In414       O421   2.312       .  S
In414       O422   2.236       .  S
In414       O423   2.257       .  S
In414       O426   2.258       .  S
C415        O421   1.263       .  A
C415        O423   1.258       .  A
C415       C1841   1.505       .  S
O416        C424   1.265       .  A
O417        C424   1.260       .  A
C418        O425   1.264       .  A
C418        O419   1.258       .  A
C418       C1782   1.495       .  S
C420        O422   1.259       .  A
C420        O426   1.258       .  A
C420       C1796   1.478       .  S
C424       C1810   1.480       .  S
In427       O429   2.227       .  S
In427       O430   2.242       .  S
In427       O438   2.280       .  S
In427       O432   2.253       .  S
In427       O434   2.276       .  S
In427       O435   2.266       .  S
In427       O436   2.236       .  S
In427       O439   2.229       .  S
C428        O434   1.260       .  A
C428        O436   1.258       .  A
C428       C1757   1.487       .  S
O429        C437   1.261       .  A
O430        C437   1.261       .  A
C431        O438   1.264       .  A
C431        O432   1.256       .  A
C431       C1740   1.495       .  S
C433        O435   1.266       .  A
C433        O439   1.259       .  A
C433       C1768   1.486       .  S
C437       C1799   1.474       .  S
In440       O442   2.226       .  S
In440       O443   2.294       .  S
In440       O451   2.276       .  S
In440       O445   2.200       .  S
In440       O447   2.234       .  S
In440       O448   2.265       .  S
In440       O449   2.242       .  S
In440       O452   2.257       .  S
C441        O447   1.259       .  A
C441        O449   1.263       .  A
C441       C1827   1.477       .  S
O442        C450   1.255       .  A
O443        C450   1.267       .  A
C444        O451   1.266       .  A
C444        O445   1.259       .  A
C444       C1726   1.479       .  S
C446        O448   1.258       .  A
C446        O452   1.260       .  A
C446       C1754   1.491       .  S
C450       C2555   1.491       .  S
In453       O455   2.267       .  S
In453       O456   2.230       .  S
In453       O464   2.216       .  S
In453       O458   2.309       .  S
In453       O460   2.295       .  S
In453       O461   2.202       .  S
In453       O462   2.260       .  S
In453       O465   2.286       .  S
C454        O460   1.260       .  A
C454        O462   1.261       .  A
C454       C1712   1.499       .  S
O455        C463   1.260       .  A
O456        C463   1.260       .  A
C457        O464   1.254       .  A
C457        O458   1.270       .  A
C457       C1684   1.498       .  S
C459        O461   1.260       .  A
C459        O465   1.268       .  A
C459       C1771   1.487       .  S
C463       C1698   1.480       .  S
In466       O468   2.235       .  S
In466       O469   2.229       .  S
In466       O477   2.293       .  S
In466       O471   2.241       .  S
In466       O473   2.290       .  S
In466       O474   2.223       .  S
In466       O475   2.258       .  S
In466       O478   2.275       .  S
C467        O473   1.263       .  A
C467        O475   1.256       .  A
C467       C1656   1.499       .  S
O468        C476   1.258       .  A
O469        C476   1.260       .  A
C470        O477   1.262       .  A
C470        O471   1.258       .  A
C470       C2706   1.495       .  S
C472        O474   1.258       .  A
C472        O478   1.268       .  A
C472       C1855   1.489       .  S
C476       C1670   1.470       .  S
In479       O481   2.238       .  S
In479       O482   2.307       .  S
In479       O490   2.243       .  S
In479       O484   2.230       .  S
In479       O486   2.246       .  S
In479       O487   2.285       .  S
In479       O488   2.255       .  S
In479       O491   2.252       .  S
C480        O486   1.258       .  A
C480        O488   1.260       .  A
C480       C1701   1.481       .  S
O481        C489   1.257       .  A
O482        C489   1.266       .  A
C483        O490   1.266       .  A
C483        O484   1.261       .  A
C483       C1729   1.476       .  S
C485        O487   1.259       .  A
C485        O491   1.260       .  A
C485       C1659   1.496       .  S
C489       C1642   1.497       .  S
In492       O494   2.215       .  S
In492       O495   2.255       .  S
In492       O503   2.260       .  S
In492       O497   2.279       .  S
In492       O499   2.303       .  S
In492       O500   2.241       .  S
In492       O501   2.260       .  S
In492       O504   2.276       .  S
C493        O499   1.262       .  A
C493        O501   1.259       .  A
C493       C2597   1.503       .  S
O494        C502   1.259       .  A
O495        C502   1.260       .  A
C496        O503   1.259       .  A
C496        O497   1.262       .  A
C496       C1715   1.499       .  S
C498        O500   1.255       .  A
C498        O504   1.265       .  A
C498       C1813   1.487       .  S
C502       C1673   1.471       .  S
C505        C506   1.542       .  S
C505        C511   1.531       .  S
C505        C509   1.530       .  S
C505       C1603   1.544       .  S
C506        H513   1.082       .  S
C506        C507   1.370       .  D
C507        C508   1.552       .  S
C507       C2107   1.488       .  S
C508        C512   1.544       .  S
C508        C510   1.544       .  S
C508        H514   1.108       .  S
C509        H515   1.086       .  S
C509        C510   1.370       .  D
C510       C1628   1.491       .  S
C511        H516   1.086       .  S
C511        C512   1.365       .  D
C512       C1614   1.494       .  S
C517        C518   1.538       .  S
C517        C523   1.538       .  S
C517        C521   1.545       .  S
C517       C2202   1.543       .  S
C518        H525   1.085       .  S
C518        C519   1.365       .  D
C519        C520   1.539       .  S
C519       C1687   1.480       .  S
C520        C524   1.552       .  S
C520        C522   1.546       .  S
C520        H526   1.107       .  S
C521        H527   1.079       .  S
C521        C522   1.365       .  D
C522       C1586   1.502       .  S
C523        H528   1.080       .  S
C523        C524   1.368       .  D
C524       C1572   1.509       .  S
C529        C530   1.543       .  S
C529        C535   1.538       .  S
C529        C533   1.546       .  S
C529       C1645   1.551       .  S
C530        H537   1.082       .  S
C530        C531   1.370       .  D
C531        C532   1.548       .  S
C531       C1589   1.504       .  S
C532        C536   1.547       .  S
C532        C534   1.533       .  S
C532        H538   1.109       .  S
C533        H539   1.076       .  S
C533        C534   1.362       .  D
C534       C1631   1.488       .  S
C535        H540   1.086       .  S
C535        C536   1.371       .  D
C536       C2062   1.492       .  S
C541        C542   1.540       .  S
C541        C547   1.551       .  S
C541        C545   1.537       .  S
C541       C1561   1.547       .  S
C542        H549   1.083       .  S
C542        C543   1.369       .  D
C543        C544   1.539       .  S
C543       C1617   1.492       .  S
C544        C548   1.539       .  S
C544        C546   1.542       .  S
C544        H550   1.110       .  S
C545        H551   1.086       .  S
C545        C546   1.361       .  D
C546       C1575   1.480   1_554  S
C547        H552   1.081       .  S
C547        C548   1.371       .  D
C548       C2275   1.491       .  S
In553       O555   2.251       .  S
In553       O556   2.236       .  S
In553       O564   2.276       .  S
In553       O558   2.266       .  S
In553       O560   2.254       .  S
In553       O561   2.239       .  S
In553       O562   2.287       .  S
In553       O565   2.263       .  S
C554        O560   1.258       .  A
C554        O562   1.265       .  A
C554       C1547   1.493       .  S
O555        C563   1.259       .  A
O556        C563   1.261       .  A
C557        O564   1.257       .  A
C557        O558   1.262       .  A
C557       C2513   1.493       .  S
C559        O561   1.260       .  A
C559        O565   1.262       .  A
C559       C1516   1.477       .  S
C563       C1530   1.476       .  S
In566       O568   2.225       .  S
In566       O569   2.263       .  S
In566       O577   2.277       .  S
In566       O571   2.262       .  S
In566       O573   2.275       .  S
In566       O574   2.221       .  S
In566       O575   2.272       .  S
In566       O578   2.271       .  S
C567        O573   1.261       .  A
C567        O575   1.257       .  A
C567       C1488   1.492       .  S
O568        C576   1.260       .  A
O569        C576   1.262       .  A
C570        O577   1.257       .  A
C570        O571   1.261       .  A
C570       C1600   1.492       .  S
C572        O574   1.259       .  A
C572        O578   1.265       .  A
C572       C1519   1.484       .  S
C576       C1502   1.479       .  S
In579       O581   2.260       .  S
In579       O582   2.246       .  S
In579       O590   2.284       .  S
In579       O584   2.248       .  S
In579       O586   2.286       .  S
In579       O587   2.239       .  S
In579       O588   2.267       .  S
In579       O591   2.241       .  S
C580        O586   1.263       .  A
C580        O588   1.258       .  A
C580       C1460   1.498       .  S
O581        C589   1.264       .  A
O582        C589   1.259       .  A
C583        O590   1.259       .  A
C583        O584   1.259       .  A
C583       C1558   1.491       .  S
C585        O587   1.261       .  A
C585        O591   1.258       .  A
C585       C1505   1.477       .  S
C589       C1474   1.482       .  S
In592       O594   2.288       .  S
In592       O595   2.242       .  S
In592       O603   2.269       .  S
In592       O597   2.298       .  S
In592       O599   2.249       .  S
In592       O600   2.231       .  S
In592       O601   2.296       .  S
In592       O604   2.267       .  S
C593        O599   1.259       .  A
C593        O601   1.261       .  A
C593       C1544   1.497       .  S
O594        C602   1.267       .  A
O595        C602   1.258       .  A
C596        O603   1.260       .  A
C596        O597   1.258       .  A
C596       C1432   1.501       .  S
C598        O600   1.259       .  A
C598        O604   1.260       .  A
C598       C1446   1.480       .  S
C602       C1477   1.493       .  S
In605       O607   2.216       .  S
In605       O608   2.312       .  S
In605       O616   2.255       .  S
In605       O610   2.218       .  S
In605       O612   2.239       .  S
In605       O613   2.274       .  S
In605       O614   2.223       .  S
In605       O617   2.269       .  S
C606        O612   1.263       .  A
C606        O614   1.260       .  A
C606       C1418   1.470       .  S
O607        C615   1.254       .  A
O608        C615   1.270       .  A
C609        O616   1.267       .  A
C609        O610   1.261       .  A
C609       C1404   1.475       .  S
C611        O613   1.262       .  A
C611        O617   1.257       .  A
C611       C1491   1.495       .  S
C615       C2622   1.489       .  S
In618       O620   2.260       .  S
In618       O621   2.294       .  S
In618       O629   2.267       .  S
In618       O623   2.189       .  S
In618       O625   2.255       .  S
In618       O626   2.232       .  S
In618       O627   2.252       .  S
In618       O630   2.286       .  S
C619        O625   1.257       .  A
C619        O627   1.261       .  A
C619       C1449   1.481       .  S
O620        C628   1.260       .  A
O621        C628   1.262       .  A
C622        O629   1.266       .  A
C622        O623   1.258       .  A
C622       C1376   1.474       .  S
C624        O626   1.261       .  A
C624        O630   1.262       .  A
C624       C1362   1.490       .  S
C628       C1390   1.500       .  S
In631       O633   2.244       .  S
In631       O634   2.295       .  S
In631       O642   2.246       .  S
In631       O636   2.244       .  S
In631       O638   2.250       .  S
In631       O639   2.278       .  S
In631       O640   2.230       .  S
In631       O643   2.262       .  S
C632        O638   1.259       .  A
C632        O640   1.260       .  A
C632       C1533   1.475       .  S
O633        C641   1.253       .  A
O634        C641   1.262       .  A
C635        O642   1.266       .  A
C635        O636   1.261       .  A
C635       C1407   1.476       .  S
C637        O639   1.264       .  A
C637        O643   1.259       .  A
C637       C1393   1.496       .  S
C641       C2443   1.493       .  S
In644       O646   2.242       .  S
In644       O647   2.207       .  S
In644       O655   2.257       .  S
In644       O649   2.282       .  S
In644       O651   2.282       .  S
In644       O652   2.199       .  S
In644       O653   2.245       .  S
In644       O656   2.268       .  S
C645        O651   1.267       .  A
C645        O653   1.255       .  A
C645       C2653   1.491       .  S
O646        C654   1.267       .  A
O647        C654   1.259       .  A
C648        O655   1.261       .  A
C648        O649   1.260       .  A
C648       C1463   1.499       .  S
C650        O652   1.258       .  A
C650        O656   1.262       .  A
C650       C1421   1.475       .  S
C654       C1379   1.470       .  S
In657       O659   2.241       .  S
In657       O660   2.244       .  S
In657       O668   2.232       .  S
In657       O662   2.289       .  S
In657       O664   2.239       .  S
In657       O665   2.219       .  S
In657       O666   2.287       .  S
In657       O669   2.256       .  S
C658        O664   1.257       .  A
C658        O666   1.262       .  A
C658       C1348   1.491       .  S
O659        C667   1.260       .  A
O660        C667   1.258       .  A
C661        O668   1.258       .  A
C661        O662   1.266       .  A
C661       C2807   1.493       .  S
C663        O665   1.259       .  A
C663        O669   1.265       .  A
C663       C1323   1.468       .  S
C667       C1334   1.477       .  S
In670       O672   2.252       .  S
In670       O673   2.220       .  S
In670       O681   2.283       .  S
In670       O675   2.265       .  S
In670       O677   2.265       .  S
In670       O678   2.247       .  S
In670       O679   2.279       .  S
In670       O682   2.270       .  S
C671        O677   1.256       .  A
C671        O679   1.264       .  A
C671       C1292   1.496       .  S
O672        C680   1.260       .  A
O673        C680   1.259       .  A
C674        O681   1.257       .  A
C674        O675   1.260       .  A
C674       C1281   1.496       .  S
C676        O678   1.260       .  A
C676        O682   1.267       .  A
C676       C1320   1.493       .  S
C680       C1306   1.470       .  S
In683       O685   2.306       .  S
In683       O686   2.201       .  S
In683       O694   2.236       .  S
In683       O688   2.298       .  S
In683       O690   2.263       .  S
In683       O691   2.228       .  S
In683       O692   2.271       .  S
In683       O695   2.239       .  S
C684        O690   1.256       .  A
C684        O692   1.264       .  A
C684       C1250   1.494       .  S
O685        C693   1.269       .  A
O686        C693   1.258       .  A
C687        O694   1.255       .  A
C687        O688   1.264       .  A
C687       C1236   1.494       .  S
C689        O691   1.260       .  A
C689        O695   1.259       .  A
C689       C1309   1.472       .  S
C693       C1264   1.493       .  S
In696       O698   2.240       .  S
In696       O699   2.316       .  S
In696       O707   2.283       .  S
In696       O701   2.233       .  S
In696       O703   2.246       .  S
In696       O704   2.262       .  S
In696       O705   2.231       .  S
In696       O708   2.273       .  S
C697        O703   1.259       .  A
C697        O705   1.261       .  A
C697       C1225   1.472       .  S
O698        C706   1.259       .  A
O699        C706   1.268       .  A
C700        O707   1.265       .  A
C700        O701   1.259       .  A
C700       C1267   1.480       .  S
C702        O704   1.256       .  A
C702        O708   1.261       .  A
C702       C1351   1.494       .  S
C706       C1869   1.504       .  S
In709       O711   2.223       .  S
In709       O712   2.326       .  S
In709       O720   2.268       .  S
In709       O714   2.218       .  S
In709       O716   2.244       .  S
In709       O717   2.277       .  S
In709       O718   2.242       .  S
In709       O721   2.257       .  S
C710        O716   1.260       .  A
C710        O718   1.261       .  A
C710       C1208   1.478       .  S
O711        C719   1.255       .  A
O712        C719   1.269       .  A
C713        O720   1.267       .  A
C713        O714   1.261       .  A
C713       C1194   1.479       .  S
C715        O717   1.264       .  A
C715        O721   1.257       .  A
C715       C1295   1.495   1_565  S
C719       C2541   1.502       .  S
In722       O724   2.249       .  S
In722       O725   2.237       .  S
In722       O733   2.277       .  S
In722       O727   2.261       .  S
In722       O729   2.259       .  S
In722       O730   2.228       .  S
In722       O731   2.279       .  S
In722       O734   2.278       .  S
C723        O729   1.257       .  A
C723        O731   1.263       .  A
C723       C1180   1.492       .  S
O724        C732   1.259       .  A
O725        C732   1.261       .  A
C726        O733   1.257       .  A
C726        O727   1.262       .  A
C726       C1897   1.489       .  S
C728        O730   1.260       .  A
C728        O734   1.265       .  A
C728       C1166   1.483       .  S
C732       C1222   1.477       .  S
In735       O737   2.256       .  S
In735       O738   2.292       .  S
In735       O746   2.278       .  S
In735       O740   2.233       .  S
In735       O742   2.231       .  S
In735       O743   2.232       .  S
In735       O744   2.266       .  S
In735       O747   2.295       .  S
C736        O742   1.259       .  A
C736        O744   1.259       .  A
C736       C1337   1.480       .  S
O737        C745   1.257       .  A
O738        C745   1.261       .  A
C739        O746   1.266       .  A
C739        O740   1.260       .  A
C739       C1197   1.486       .  S
C741        O743   1.259       .  A
C741        O747   1.264       .  A
C741       C1183   1.494       .  S
C745       C2776   1.498       .  S
In748       O750   2.271       .  S
In748       O751   2.241       .  S
In748       O759   2.265       .  S
In748       O753   2.270       .  S
In748       O755   2.296       .  S
In748       O756   2.227       .  S
In748       O757   2.233       .  S
In748       O760   2.254       .  S
C749        O755   1.268       .  A
C749        O757   1.256       .  A
C749       C2499   1.494       .  S
O750        C758   1.266       .  A
O751        C758   1.262       .  A
C752        O759   1.258       .  A
C752        O753   1.262       .  A
C752       C1253   1.493       .  S
C754        O756   1.262       .  A
C754        O760   1.259       .  A
C754       C1211   1.478       .  S
C758       C1169   1.487       .  S
In761       O763   2.282       .  S
In761       O764   2.242       .  S
In761       O772   2.278       .  S
In761       O766   2.263       .  S
In761       O768   2.293       .  S
In761       O769   2.235       .  S
In761       O770   2.266       .  S
In761       O773   2.231       .  S
C762        O768   1.260       .  A
C762        O770   1.259       .  A
C762       C2849   1.501       .  S
O763        C771   1.266       .  A
O764        C771   1.255       .  A
C765        O772   1.262       .  A
C765        O766   1.259       .  A
C765       C1138   1.500       .  S
C767        O769   1.258       .  A
C767        O773   1.261       .  A
C767       C1124   1.471       .  S
C771       C1152   1.488       .  S
In774       O776   2.258       .  S
In774       O777   2.224       .  S
In774       O785   2.300       .  S
In774       O779   2.249       .  S
In774       O781   2.299       .  S
In774       O782   2.238       .  S
In774       O783   2.257       .  S
In774       O786   2.241       .  S
C775        O781   1.267       .  A
C775        O783   1.257       .  A
C775       C1939   1.498       .  S
O776        C784   1.267       .  A
O777        C784   1.262       .  A
C778        O785   1.261       .  A
C778        O779   1.257       .  A
C778       C1096   1.497       .  S
C780        O782   1.259       .  A
C780        O786   1.259       .  A
C780       C1085   1.473       .  S
C784       C1110   1.478       .  S
In787       O789   2.281       .  S
In787       O790   2.219       .  S
In787       O798   2.232       .  S
In787       O792   2.276       .  S
In787       O794   2.264       .  S
In787       O795   2.242       .  S
In787       O796   2.286       .  S
In787       O799   2.234       .  S
C788        O794   1.256       .  A
C788        O796   1.263       .  A
C788       C1099   1.495       .  S
O789        C797   1.265       .  A
O790        C797   1.261       .  A
C791        O798   1.258       .  A
C791        O792   1.267       .  A
C791       C2891   1.491       .  S
C793        O795   1.261       .  A
C793        O799   1.255       .  A
C793       C1127   1.463       .  S
C797       C1068   1.486       .  S
In800       O802   2.242       .  S
In800       O803   2.322       .  S
In800       O811   2.276       .  S
In800       O805   2.228       .  S
In800       O807   2.209       .  S
In800       O808   2.257       .  S
In800       O809   2.271       .  S
In800       O812   2.306       .  S
C801        O807   1.257       .  A
C801        O809   1.260       .  A
C801       C1082   1.476       .  S
O802        C810   1.257       .  A
O803        C810   1.268       .  A
C804        O811   1.268       .  A
C804        O805   1.260       .  A
C804       C1054   1.482       .  S
C806        O808   1.258       .  A
C806        O812   1.262       .  A
C806       C1141   1.504       .  S
C810       C1883   1.504       .  S
In813       O815   2.252       .  S
In813       O816   2.298       .  S
In813       O824   2.283       .  S
In813       O818   2.200       .  S
In813       O820   2.261       .  S
In813       O821   2.283       .  S
In813       O822   2.218       .  S
In813       O825   2.242       .  S
C814        O820   1.258       .  A
C814        O822   1.260       .  A
C814       C1026   1.474       .  S
O815        C823   1.257       .  A
O816        C823   1.262       .  A
C817        O824   1.268       .  A
C817        O818   1.261       .  A
C817       C1113   1.486       .  S
C819        O821   1.266       .  A
C819        O825   1.256       .  A
C819       C1015   1.490       .  S
C823       C1040   1.500       .  S
In826       O828   2.250       .  S
In826       O829   2.238       .  S
In826       O837   2.218       .  S
In826       O831   2.276       .  S
In826       O833   2.237       .  S
In826       O834   2.219       .  S
In826       O835   2.282       .  S
In826       O838   2.276       .  S
C827        O833   1.256       .  A
C827        O835   1.259       .  A
C827        C984   1.486   1_565  S
O828        C836   1.257       .  A
O829        C836   1.260       .  A
C830        O837   1.258       .  A
C830        O831   1.266       .  A
C830       C2457   1.482       .  S
C832        O834   1.263       .  A
C832        O838   1.266       .  A
C832       C1155   1.485       .  S
C836        C998   1.477       .  S
In839       O841   2.276       .  S
In839       O842   2.227       .  S
In839       O850   2.232       .  S
In839       O844   2.301       .  S
In839       O846   2.262       .  S
In839       O847   2.239       .  S
In839       O848   2.250       .  S
In839       O851   2.229       .  S
C840        O846   1.261       .  A
C840        O848   1.256       .  A
C840        C987   1.485       .  S
O841        C849   1.267       .  A
O842        C849   1.259       .  A
C843        O850   1.257       .  A
C843        O844   1.264       .  A
C843        C973   1.493       .  S
C845        O847   1.262       .  A
C845        O851   1.258       .  A
C845       C1029   1.472       .  S
C849       C1071   1.485       .  S
In852       O854   2.219       .  S
In852       O855   2.240       .  S
In852       O863   2.280       .  S
In852       O857   2.276       .  S
In852       O859   2.234       .  S
In852       O860   2.212       .  S
In852       O861   2.305       .  S
In852       O864   2.311       .  S
C853        O859   1.253       .  A
C853        O861   1.267       .  A
C853       C2429   1.497       .  S
O854        C862   1.262       .  A
O855        C862   1.262       .  A
C856        O863   1.258       .  A
C856        O857   1.260       .  A
C856       C1043   1.501   1_565  S
C858        O860   1.256       .  A
C858        O864   1.267       .  A
C858       C1057   1.491       .  S
C862       C1001   1.474       .  S
C865        C866   1.533       .  S
C865        C871   1.541       .  S
C865        C869   1.544       .  S
C865       C1785   1.547       .  S
C866        H873   1.086       .  S
C866        C867   1.365       .  D
C867        C868   1.535       .  S
C867        C956   1.484       .  S
C868        C872   1.549       .  S
C868        C870   1.551       .  S
C868        H874   1.104       .  S
C869        H875   1.081       .  S
C869        C870   1.370       .  D
C870        C970   1.491       .  S
C871        H876   1.085       .  S
C871        C872   1.372       .  D
C872        C942   1.514       .  S
C877        C878   1.542       .  S
C877        C883   1.528       .  S
C877        C881   1.533       .  S
C877       C1278   1.548       .  S
C878        H885   1.073       .  S
C878        C879   1.380       .  D
C879        C880   1.571       .  S
C879       C1743   1.529       .  S
C880        C884   1.539       .  S
C880        C882   1.557       .  S
C880        H886   1.100       .  S
C881        H887   1.083       .  S
C881        C882   1.371       .  D
C882        C945   1.512       .  S
C883        H888   1.087       .  S
C883        C884   1.361       .  D
C884        C928   1.493       .  S
C889        C890   1.553       .  S
C889        C895   1.536       .  S
C889        C893   1.537       .  S
C889       C1239   1.548       .  S
C890        H897   1.080       .  S
C890        C891   1.364       .  D
C891        C892   1.534       .  S
C891        C914   1.480       .  S
C892        C896   1.543       .  S
C892        C894   1.555       .  S
C892        H898   1.110       .  S
C893        H899   1.083       .  S
C893        C894   1.372       .  D
C894       C1435   1.508       .  S
C895        H900   1.085       .  S
C895        C896   1.364       .  D
C896        C931   1.494       .  S
C901        C902   1.546       .  S
C901        C907   1.537       .  S
C901        C905   1.532       .  S
C901       C1365   1.549       .  S
C902        H909   1.081       .  S
C902        C903   1.374       .  D
C903        C904   1.544       .  S
C903       C1012   1.498       .  S
C904        C908   1.538       .  S
C904        C906   1.535       .  S
C904        H910   1.105       .  S
C905        H911   1.086       .  S
C905        C906   1.365       .  D
C906        C959   1.482       .  S
C907        H912   1.083       .  S
C907        C908   1.370       .  D
C908        C917   1.488       .  S
C913        C914   1.400       .  A
C913        C918   1.402   1_455  A
C913        H920   1.082       .  S
C914        C915   1.406       .  A
C915        C916   1.398   1_455  A
C915        N922   1.427       .  S
C916        C917   1.405       .  A
C916        H921   1.084       .  S
C917        C918   1.417       .  A
C918        N919   1.431       .  S
N919        O923   1.262       .  A
N919        O924   1.262       .  A
N922        O926   1.262       .  A
N922        O925   1.262       .  A
C927        C928   1.401       .  A
C927        C932   1.396       .  A
C927        H934   1.084       .  S
C928        C929   1.414       .  A
C929        C930   1.412       .  A
C929        N936   1.428       .  S
C930        C931   1.406       .  A
C930        H935   1.084       .  S
C931        C932   1.416       .  A
C932        N933   1.431       .  S
N933        O937   1.262       .  A
N933        O938   1.262       .  A
N936        O940   1.262       .  A
N936        O939   1.262       .  A
C941        C942   1.411       .  A
C941        C946   1.406   1_655  A
C941        H948   1.080       .  S
C942        C943   1.416       .  A
C943        C944   1.405   1_655  A
C943        N950   1.426       .  S
C944        C945   1.409       .  A
C944        H949   1.083       .  S
C945        C946   1.413       .  A
C946        N947   1.425       .  S
N947        O951   1.262       .  A
N947        O952   1.262       .  A
N950        O954   1.262       .  A
N950        O953   1.262       .  A
C955        C956   1.400       .  A
C955        C960   1.393       .  A
C955        H962   1.084       .  S
C956        C957   1.412       .  A
C957        C958   1.407       .  A
C957        N964   1.428       .  S
C958        C959   1.404       .  A
C958        H963   1.084       .  S
C959        C960   1.411       .  A
C960        N961   1.431       .  S
N961        O965   1.262       .  A
N961        O966   1.262       .  A
N964        O968   1.262       .  A
N964        O967   1.261       .  A
C969        C970   1.399       .  A
C969        C974   1.405       .  A
C969        H976   1.074       .  S
C970        C971   1.410       .  A
C971        C972   1.402       .  A
C971        N978   1.429       .  S
C972        C973   1.408       .  A
C972        H977   1.084       .  S
C973        C974   1.414       .  A
C974        N975   1.428       .  S
N975        O979   1.262       .  A
N975        O980   1.262       .  A
N978        O982   1.262       .  A
N978        O981   1.261       .  A
C983        C984   1.405       .  A
C983        C988   1.400       .  A
C983        H990   1.084       .  S
C984        C985   1.414       .  A
C985        C986   1.403       .  A
C985        N992   1.429       .  S
C986        C987   1.405       .  A
C986        H991   1.084       .  S
C987        C988   1.413       .  A
C988        N989   1.429       .  S
N989        O993   1.262       .  A
N989        O994   1.262       .  A
N992        O996   1.262       .  A
N992        O995   1.261       .  A
C997        C998   1.403       .  A
C997       C1002   1.397       .  A
C997       H1004   1.084       .  S
C998        C999   1.413       .  A
C999       C1000   1.395       .  A
C999       N1006   1.429       .  S
C1000      C1001   1.402       .  A
C1000      H1005   1.084       .  S
C1001      C1002   1.412       .  A
C1002      N1003   1.429       .  S
N1003      O1007   1.262       .  A
N1003      O1008   1.262       .  A
N1006      O1010   1.262       .  A
N1006      O1009   1.262       .  A
C1011      C1012   1.404       .  A
C1011      C1016   1.399       .  A
C1011      H1018   1.084       .  S
C1012      C1013   1.416       .  A
C1013      C1014   1.409       .  A
C1013      N1020   1.429       .  S
C1014      C1015   1.406       .  A
C1014      H1019   1.084       .  S
C1015      C1016   1.413       .  A
C1016      N1017   1.428       .  S
N1017      O1021   1.262       .  A
N1017      O1022   1.262       .  A
N1020      O1024   1.262       .  A
N1020      O1023   1.262       .  A
C1025      C1026   1.401       .  A
C1025      C1030   1.392       .  A
C1025      H1032   1.084       .  S
C1026      C1027   1.413       .  A
C1027      C1028   1.398       .  A
C1027      N1034   1.428       .  S
C1028      C1029   1.402       .  A
C1028      H1033   1.084       .  S
C1029      C1030   1.411       .  A
C1030      N1031   1.428       .  S
N1031      O1035   1.260       .  A
N1031      O1036   1.262       .  A
N1034      O1038   1.262       .  A
N1034      O1037   1.262       .  A
C1039      C1040   1.406       .  A
C1039      C1044   1.405       .  A
C1039      H1046   1.084       .  S
C1040      C1041   1.416       .  A
C1041      C1042   1.410       .  A
C1041      N1048   1.428       .  S
C1042      C1043   1.408       .  A
C1042      H1047   1.084       .  S
C1043      C1044   1.417       .  A
C1044      N1045   1.429       .  S
N1045      O1049   1.262   1_545  A
N1045      O1050   1.262       .  A
N1048      O1052   1.262       .  A
N1048      O1051   1.262       .  A
C1053      C1054   1.406       .  A
C1053      C1058   1.411       .  A
C1053      H1060   1.084       .  S
C1054      C1055   1.409       .  A
C1055      C1056   1.395       .  A
C1055      N1062   1.430       .  S
C1056      C1057   1.405       .  A
C1056      H1061   1.083       .  S
C1057      C1058   1.414       .  A
C1058      N1059   1.427       .  S
N1059      O1063   1.262       .  A
N1059      O1064   1.262       .  A
N1062      O1066   1.262       .  A
N1062      O1065   1.262       .  A
C1067      C1068   1.400       .  A
C1067      C1072   1.394       .  A
C1067      H1074   1.084       .  S
C1068      C1069   1.415       .  A
C1069      C1070   1.409       .  A
C1069      N1076   1.427       .  S
C1070      C1071   1.405       .  A
C1070      H1075   1.084       .  S
C1071      C1072   1.412       .  A
C1072      N1073   1.427       .  S
N1073      O1077   1.262       .  A
N1073      O1078   1.261       .  A
N1076      O1080   1.262       .  A
N1076      O1079   1.262       .  A
C1081      C1082   1.404   1_545  A
C1081      C1086   1.392       .  A
C1081      H1088   1.084   1_545  S
C1082      C1083   1.413   1_565  A
C1083      C1084   1.400       .  A
C1083      N1090   1.429   1_545  S
C1084      C1085   1.404       .  A
C1084      H1089   1.084       .  S
C1085      C1086   1.409       .  A
C1086      N1087   1.429       .  S
N1087      O1091   1.262       .  A
N1087      O1092   1.262       .  A
N1090      O1094   1.262       .  A
N1090      O1093   1.262       .  A
C1095      C1096   1.406       .  A
C1095      C1100   1.404       .  A
C1095      H1102   1.084       .  S
C1096      C1097   1.416       .  A
C1097      C1098   1.409       .  A
C1097      N1104   1.427       .  S
C1098      C1099   1.406       .  A
C1098      H1103   1.084       .  S
C1099      C1100   1.414       .  A
C1100      N1101   1.429       .  S
N1101      O1105   1.262       .  A
N1101      O1106   1.262       .  A
N1104      O1108   1.261       .  A
N1104      O1107   1.262       .  A
C1109      C1110   1.405       .  A
C1109      C1114   1.407       .  A
C1109      H1116   1.084       .  S
C1110      C1111   1.409       .  A
C1111      C1112   1.393       .  A
C1111      N1118   1.429       .  S
C1112      C1113   1.405       .  A
C1112      H1117   1.084       .  S
C1113      C1114   1.414       .  A
C1114      N1115   1.428       .  S
N1115      O1119   1.262       .  A
N1115      O1120   1.262       .  A
N1118      O1122   1.261       .  A
N1118      O1121   1.262       .  A
C1123      C1124   1.402   1_545  A
C1123      C1128   1.393       .  A
C1123      H1130   1.084       .  S
C1124      C1125   1.414   1_565  A
C1125      C1126   1.396       .  A
C1125      N1132   1.429   1_545  S
C1126      C1127   1.398       .  A
C1126      H1131   1.084       .  S
C1127      C1128   1.409       .  A
C1128      N1129   1.430       .  S
N1129      O1133   1.262       .  A
N1129      O1134   1.262       .  A
N1132      O1136   1.262       .  A
N1132      O1135   1.262       .  A
C1137      C1138   1.407       .  A
C1137      C1142   1.411       .  A
C1137      H1144   1.084       .  S
C1138      C1139   1.416       .  A
C1139      C1140   1.405       .  A
C1139      N1146   1.429       .  S
C1140      C1141   1.407       .  A
C1140      H1145   1.084       .  S
C1141      C1142   1.418       .  A
C1142      N1143   1.428       .  S
N1143      O1147   1.262       .  A
N1143      O1148   1.262       .  A
N1146      O1150   1.261       .  A
N1146      O1149   1.262       .  A
C1151      C1152   1.406       .  A
C1151      C1156   1.408       .  A
C1151      H1158   1.084       .  S
C1152      C1153   1.416       .  A
C1153      C1154   1.397       .  A
C1153      N1160   1.429       .  S
C1154      C1155   1.401       .  A
C1154      H1159   1.084       .  S
C1155      C1156   1.414       .  A
C1156      N1157   1.428       .  S
N1157      O1161   1.262       .  A
N1157      O1162   1.262       .  A
N1160      O1164   1.262       .  A
N1160      O1163   1.262       .  A
C1165      C1166   1.403       .  A
C1165      C1170   1.401       .  A
C1165      H1172   1.084       .  S
C1166      C1167   1.411       .  A
C1167      C1168   1.406       .  A
C1167      N1174   1.429       .  S
C1168      C1169   1.407       .  A
C1168      H1173   1.084       .  S
C1169      C1170   1.411       .  A
C1170      N1171   1.428       .  S
N1171      O1175   1.262       .  A
N1171      O1176   1.262       .  A
N1174      O1178   1.262       .  A
N1174      O1177   1.262       .  A
C1179      C1180   1.406       .  A
C1179      C1184   1.409       .  A
C1179      H1186   1.084       .  S
C1180      C1181   1.414       .  A
C1181      C1182   1.401       .  A
C1181      N1188   1.429       .  S
C1182      C1183   1.405       .  A
C1182      H1187   1.084       .  S
C1183      C1184   1.415       .  A
C1184      N1185   1.428       .  S
N1185      O1189   1.261       .  A
N1185      O1190   1.262       .  A
N1188      O1192   1.262       .  A
N1188      O1191   1.262       .  A
C1193      C1194   1.403       .  A
C1193      C1198   1.401       .  A
C1193      H1200   1.084       .  S
C1194      C1195   1.409       .  A
C1195      C1196   1.403       .  A
C1195      N1202   1.428       .  S
C1196      C1197   1.407       .  A
C1196      H1201   1.084       .  S
C1197      C1198   1.412       .  A
C1198      N1199   1.427       .  S
N1199      O1203   1.262       .  A
N1199      O1204   1.262       .  A
N1202      O1206   1.261       .  A
N1202      O1205   1.262       .  A
C1207      C1208   1.404       .  A
C1207      C1212   1.400       .  A
C1207      H1214   1.084       .  S
C1208      C1209   1.411       .  A
C1209      C1210   1.396       .  A
C1209      N1216   1.428       .  S
C1210      C1211   1.402       .  A
C1210      H1215   1.084       .  S
C1211      C1212   1.414       .  A
C1212      N1213   1.428       .  S
N1213      O1217   1.260       .  A
N1213      O1218   1.262       .  A
N1216      O1220   1.262       .  A
N1216      O1219   1.262       .  A
C1221      C1222   1.404       .  A
C1221      C1226   1.398   1_565  A
C1221      H1228   1.084       .  S
C1222      C1223   1.413       .  A
C1223      C1224   1.395   1_565  A
C1223      N1230   1.429       .  S
C1224      C1225   1.401       .  A
C1224      H1229   1.084       .  S
C1225      C1226   1.411       .  A
C1226      N1227   1.429       .  S
N1227      O1231   1.262       .  A
N1227      O1232   1.262       .  A
N1230      O1234   1.262       .  A
N1230      O1233   1.262       .  A
C1235      C1236   1.405       .  A
C1235      C1240   1.403       .  A
C1235      H1242   1.084       .  S
C1236      C1237   1.410       .  A
C1237      C1238   1.405       .  A
C1237      N1244   1.428       .  S
C1238      C1239   1.415       .  A
C1238      H1243   1.074       .  S
C1239      C1240   1.421       .  A
C1240      N1241   1.431       .  S
N1241      O1245   1.262       .  A
N1241      O1246   1.262       .  A
N1244      O1248   1.262       .  A
N1244      O1247   1.262       .  A
C1249      C1250   1.404       .  A
C1249      C1254   1.404   1_545  A
C1249      H1256   1.084       .  S
C1250      C1251   1.417       .  A
C1251      C1252   1.406   1_545  A
C1251      N1258   1.429       .  S
C1252      C1253   1.405       .  A
C1252      H1257   1.084       .  S
C1253      C1254   1.414       .  A
C1254      N1255   1.427       .  S
N1255      O1259   1.262       .  A
N1255      O1260   1.262       .  A
N1258      O1262   1.262       .  A
N1258      O1261   1.262       .  A
C1263      C1264   1.407       .  A
C1263      C1268   1.394       .  A
C1263      H1270   1.083       .  S
C1264      C1265   1.416       .  A
C1265      C1266   1.412       .  A
C1265      N1272   1.428       .  S
C1266      C1267   1.405       .  A
C1266      H1271   1.084       .  S
C1267      C1268   1.406       .  A
C1268      N1269   1.429       .  S
N1269      O1273   1.262       .  A
N1269      O1274   1.262       .  A
N1272      O1276   1.262       .  A
N1272      O1275   1.262       .  A
C1277      C1278   1.413       .  A
C1277      C1282   1.407       .  A
C1277      H1284   1.080       .  S
C1278      C1279   1.426       .  A
C1279      C1280   1.403       .  A
C1279      N1286   1.430       .  S
C1280      C1281   1.401       .  A
C1280      H1285   1.084       .  S
C1281      C1282   1.413       .  A
C1282      N1283   1.428       .  S
N1283      O1287   1.262       .  A
N1283      O1288   1.262       .  A
N1286      O1290   1.262       .  A
N1286      O1289   1.262       .  A
C1291      C1292   1.404       .  A
C1291      C1296   1.405       .  A
C1291      H1298   1.084       .  S
C1292      C1293   1.417       .  A
C1293      C1294   1.407       .  A
C1293      N1300   1.429       .  S
C1294      C1295   1.405       .  A
C1294      H1299   1.084       .  S
C1295      C1296   1.416       .  A
C1296      N1297   1.428       .  S
N1297      O1301   1.262       .  A
N1297      O1302   1.262       .  A
N1300      O1304   1.262       .  A
N1300      O1303   1.262       .  A
C1305      C1306   1.402       .  A
C1305      C1310   1.394       .  A
C1305      H1312   1.084       .  S
C1306      C1307   1.409       .  A
C1307      C1308   1.395       .  A
C1307      N1314   1.429       .  S
C1308      C1309   1.403       .  A
C1308      H1313   1.084       .  S
C1309      C1310   1.413       .  A
C1310      N1311   1.430       .  S
N1311      O1315   1.262       .  A
N1311      O1316   1.262       .  A
N1314      O1318   1.262       .  A
N1314      O1317   1.262       .  A
C1319      C1320   1.410       .  A
C1319      C1324   1.405       .  A
C1319      H1326   1.083       .  S
C1320      C1321   1.420       .  A
C1321      C1322   1.400       .  A
C1321      N1328   1.429       .  S
C1322      C1323   1.396       .  A
C1322      H1327   1.084       .  S
C1323      C1324   1.406       .  A
C1324      N1325   1.430       .  S
N1325      O1329   1.262       .  A
N1325      O1330   1.262       .  A
N1328      O1332   1.262       .  A
N1328      O1331   1.262       .  A
C1333      C1334   1.404       .  A
C1333      C1338   1.400   1_545  A
C1333      H1340   1.084       .  S
C1334      C1335   1.411       .  A
C1335      C1336   1.396   1_545  A
C1335      N1342   1.429       .  S
C1336      C1337   1.404       .  A
C1336      H1341   1.084       .  S
C1337      C1338   1.413       .  A
C1338      N1339   1.429       .  S
N1339      O1343   1.262       .  A
N1339      O1344   1.262       .  A
N1342      O1346   1.262       .  A
N1342      O1345   1.262       .  A
C1347      C1348   1.404       .  A
C1347      C1352   1.402       .  A
C1347      H1354   1.084       .  S
C1348      C1349   1.414       .  A
C1349      C1350   1.407       .  A
C1349      N1356   1.428       .  S
C1350      C1351   1.407       .  A
C1350      H1355   1.084       .  S
C1351      C1352   1.416       .  A
C1352      N1353   1.429       .  S
N1353      O1357   1.262       .  A
N1353      O1358   1.262       .  A
N1356      O1360   1.262       .  A
N1356      O1359   1.262       .  A
C1361      C1362   1.398       .  A
C1361      C1366   1.398       .  A
C1361      H1368   1.084       .  S
C1362      C1363   1.410       .  A
C1363      C1364   1.411       .  A
C1363      N1370   1.428       .  S
C1364      C1365   1.417       .  A
C1364      H1369   1.077       .  S
C1365      C1366   1.425       .  A
C1366      N1367   1.431       .  S
N1367      O1371   1.262       .  A
N1367      O1372   1.261       .  A
N1370      O1374   1.262       .  A
N1370      O1373   1.262       .  A
C1375      C1376   1.403       .  A
C1375      C1380   1.390       .  A
C1375      H1382   1.084       .  S
C1376      C1377   1.411       .  A
C1377      C1378   1.401       .  A
C1377      N1384   1.428       .  S
C1378      C1379   1.403       .  A
C1378      H1383   1.084       .  S
C1379      C1380   1.411       .  A
C1380      N1381   1.430       .  S
N1381      O1385   1.262       .  A
N1381      O1386   1.262       .  A
N1384      O1388   1.262       .  A
N1384      O1387   1.262       .  A
C1389      C1390   1.407       .  A
C1389      C1394   1.406       .  A
C1389      H1396   1.084       .  S
C1390      C1391   1.417       .  A
C1391      C1392   1.409       .  A
C1391      N1398   1.428       .  S
C1392      C1393   1.405       .  A
C1392      H1397   1.084       .  S
C1393      C1394   1.414       .  A
C1394      N1395   1.429       .  S
N1395      O1399   1.262       .  A
N1395      O1400   1.262       .  A
N1398      O1402   1.262       .  A
N1398      O1401   1.262       .  A
C1403      C1404   1.402       .  A
C1403      C1408   1.404       .  A
C1403      H1410   1.084       .  S
C1404      C1405   1.411       .  A
C1405      C1406   1.397       .  A
C1405      N1412   1.428       .  S
C1406      C1407   1.399       .  A
C1406      H1411   1.084       .  S
C1407      C1408   1.414       .  A
C1408      N1409   1.429       .  S
N1409      O1413   1.262       .  A
N1409      O1414   1.262       .  A
N1412      O1416   1.262       .  A
N1412      O1415   1.262       .  A
C1417      C1418   1.405       .  A
C1417      C1422   1.399       .  A
C1417      H1424   1.083       .  S
C1418      C1419   1.406       .  A
C1419      C1420   1.392       .  A
C1419      N1426   1.428       .  S
C1420      C1421   1.405       .  A
C1420      H1425   1.084       .  S
C1421      C1422   1.412       .  A
C1422      N1423   1.430       .  S
N1423      O1427   1.262       .  A
N1423      O1428   1.262       .  A
N1426      O1430   1.262       .  A
N1426      O1429   1.262       .  A
C1431      C1432   1.404       .  A
C1431      C1436   1.403       .  A
C1431      H1438   1.084       .  S
C1432      C1433   1.417       .  A
C1433      C1434   1.412       .  A
C1433      N1440   1.428       .  S
C1434      C1435   1.407       .  A
C1434      H1439   1.083       .  S
C1435      C1436   1.420       .  A
C1436      N1437   1.429       .  S
N1437      O1441   1.262       .  A
N1437      O1442   1.262       .  A
N1440      O1444   1.262       .  A
N1440      O1443   1.262       .  A
C1445      C1446   1.403       .  A
C1445      C1450   1.397   1_455  A
C1445      H1452   1.084       .  S
C1446      C1447   1.412       .  A
C1447      C1448   1.401   1_455  A
C1447      N1454   1.429       .  S
C1448      C1449   1.405       .  A
C1448      H1453   1.084       .  S
C1449      C1450   1.413       .  A
C1450      N1451   1.429       .  S
N1451      O1455   1.262       .  A
N1451      O1456   1.262       .  A
N1454      O1458   1.262       .  A
N1454      O1457   1.262       .  A
C1459      C1460   1.407       .  A
C1459      C1464   1.410   1_455  A
C1459      H1466   1.084       .  S
C1460      C1461   1.415       .  A
C1461      C1462   1.404   1_455  A
C1461      N1468   1.428       .  S
C1462      C1463   1.406       .  A
C1462      H1467   1.084       .  S
C1463      C1464   1.417       .  A
C1464      N1465   1.429       .  S
N1465      O1469   1.262       .  A
N1465      O1470   1.262       .  A
N1468      O1472   1.262       .  A
N1468      O1471   1.262       .  A
C1473      C1474   1.398       .  A
C1473      C1478   1.400       .  A
C1473      H1480   1.084       .  S
C1474      C1475   1.412       .  A
C1475      C1476   1.409       .  A
C1475      N1482   1.430       .  S
C1476      C1477   1.408       .  A
C1476      H1481   1.084       .  S
C1477      C1478   1.417       .  A
C1478      N1479   1.428       .  S
N1479      O1483   1.262       .  A
N1479      O1484   1.262       .  A
N1482      O1486   1.262       .  A
N1482      O1485   1.262       .  A
C1487      C1488   1.405       .  A
C1487      C1492   1.406       .  A
C1487      H1494   1.084       .  S
C1488      C1489   1.414       .  A
C1489      C1490   1.405   1_455  A
C1489      N1496   1.428       .  S
C1490      C1491   1.406       .  A
C1490      H1495   1.084       .  S
C1491      C1492   1.417   1_655  A
C1492      N1493   1.429   1_455  S
N1493      O1497   1.262       .  A
N1493      O1498   1.262       .  A
N1496      O1500   1.262       .  A
N1496      O1499   1.262       .  A
C1501      C1502   1.404       .  A
C1501      C1506   1.395       .  A
C1501      H1508   1.084       .  S
C1502      C1503   1.412       .  A
C1503      C1504   1.399       .  A
C1503      N1510   1.428       .  S
C1504      C1505   1.404       .  A
C1504      H1509   1.084       .  S
C1505      C1506   1.412       .  A
C1506      N1507   1.430       .  S
N1507      O1511   1.262       .  A
N1507      O1512   1.262       .  A
N1510      O1514   1.262       .  A
N1510      O1513   1.262       .  A
C1515      C1516   1.404       .  A
C1515      C1520   1.403       .  A
C1515      H1522   1.084       .  S
C1516      C1517   1.409       .  A
C1517      C1518   1.398       .  A
C1517      N1524   1.429       .  S
C1518      C1519   1.407       .  A
C1518      H1523   1.084       .  S
C1519      C1520   1.413       .  A
C1520      N1521   1.428       .  S
N1521      O1525   1.262       .  A
N1521      O1526   1.262       .  A
N1524      O1528   1.262       .  A
N1524      O1527   1.262       .  A
C1529      C1530   1.403       .  A
C1529      C1534   1.398   1_455  A
C1529      H1536   1.084       .  S
C1530      C1531   1.413       .  A
C1531      C1532   1.396   1_455  A
C1531      N1538   1.429       .  S
C1532      C1533   1.402       .  A
C1532      H1537   1.084       .  S
C1533      C1534   1.412       .  A
C1534      N1535   1.429       .  S
N1535      O1539   1.262       .  A
N1535      O1540   1.262       .  A
N1538      O1542   1.262       .  A
N1538      O1541   1.262       .  A
C1543      C1544   1.406       .  A
C1543      C1548   1.401       .  A
C1543      H1550   1.084       .  S
C1544      C1545   1.416       .  A
C1545      C1546   1.411       .  A
C1545      N1552   1.428       .  S
C1546      C1547   1.407       .  A
C1546      H1551   1.084       .  S
C1547      C1548   1.412       .  A
C1548      N1549   1.428       .  S
N1549      O1553   1.262       .  A
N1549      O1554   1.262       .  A
N1552      O1556   1.262       .  A
N1552      O1555   1.262       .  A
C1557      C1558   1.400       .  A
C1557      C1562   1.399       .  A
C1557      H1564   1.084       .  S
C1558      C1559   1.411       .  A
C1559      C1560   1.409       .  A
C1559      N1566   1.428       .  S
C1560      C1561   1.414       .  A
C1560      H1565   1.077       .  S
C1561      C1562   1.422       .  A
C1562      N1563   1.429       .  S
N1563      O1567   1.262       .  A
N1563      O1568   1.262       .  A
N1566      O1570   1.262       .  A
N1566      O1569   1.262       .  A
C1571      C1572   1.407       .  A
C1571      C1576   1.398       .  A
C1571      H1578   1.079       .  S
C1572      C1573   1.428       .  A
C1573      C1574   1.406       .  A
C1573      N1580   1.429       .  S
C1574      C1575   1.397       .  A
C1574      H1579   1.084   1_556  S
C1575      C1576   1.405       .  A
C1576      N1577   1.428       .  S
N1577      O1581   1.261       .  A
N1577      O1582   1.261       .  A
N1580      O1584   1.263       .  A
N1580      O1583   1.262       .  A
C1585      C1586   1.405       .  A
C1585      C1590   1.410       .  A
C1585      H1592   1.083       .  S
C1586      C1587   1.417       .  A
C1587      C1588   1.400       .  A
C1587      N1594   1.429       .  S
C1588      C1589   1.401       .  A
C1588      H1593   1.083       .  S
C1589      C1590   1.423       .  A
C1590      N1591   1.431       .  S
N1591      O1595   1.262       .  A
N1591      O1596   1.261       .  A
N1594      O1598   1.262       .  A
N1594      O1597   1.262       .  A
C1599      C1600   1.400       .  A
C1599      C1604   1.400       .  A
C1599      H1606   1.084       .  S
C1600      C1601   1.413       .  A
C1601      C1602   1.408       .  A
C1601      N1608   1.428       .  S
C1602      C1603   1.411       .  A
C1602      H1607   1.078       .  S
C1603      C1604   1.425       .  A
C1604      N1605   1.432       .  S
N1605      O1609   1.262       .  A
N1605      O1610   1.262       .  A
N1608      O1612   1.262       .  A
N1608      O1611   1.262       .  A
C1613      C1614   1.405       .  A
C1613      C1618   1.399       .  A
C1613      H1620   1.084       .  S
C1614      C1615   1.414       .  A
C1615      C1616   1.405       .  A
C1615      N1622   1.427       .  S
C1616      C1617   1.404       .  A
C1616      H1621   1.082       .  S
C1617      C1618   1.412       .  A
C1618      N1619   1.429       .  S
N1619      O1623   1.261       .  A
N1619      O1624   1.262       .  A
N1622      O1626   1.261       .  A
N1622      O1625   1.262       .  A
C1627      C1628   1.402   1_556  A
C1627      C1632   1.388       .  A
C1627      H1634   1.082   1_556  S
C1628      C1629   1.413   1_554  A
C1629      C1630   1.409       .  A
C1629      N1636   1.428   1_556  S
C1630      C1631   1.407       .  A
C1630      H1635   1.083       .  S
C1631      C1632   1.412       .  A
C1632      N1633   1.430       .  S
N1633      O1637   1.261       .  A
N1633      O1638   1.262       .  A
N1636      O1640   1.261       .  A
N1636      O1639   1.262       .  A
C1641      C1642   1.407       .  A
C1641      C1646   1.405       .  A
C1641      H1648   1.084       .  S
C1642      C1643   1.410       .  A
C1643      C1644   1.405       .  A
C1643      N1650   1.428       .  S
C1644      C1645   1.416       .  A
C1644      H1649   1.075       .  S
C1645      C1646   1.417       .  A
C1646      N1647   1.430       .  S
N1647      O1651   1.262       .  A
N1647      O1652   1.262       .  A
N1650      O1654   1.262       .  A
N1650      O1653   1.262       .  A
C1655      C1656   1.408       .  A
C1655      C1660   1.410   1_655  A
C1655      H1662   1.084       .  S
C1656      C1657   1.417       .  A
C1657      C1658   1.402   1_655  A
C1657      N1664   1.428       .  S
C1658      C1659   1.403       .  A
C1658      H1663   1.084       .  S
C1659      C1660   1.417       .  A
C1660      N1661   1.429       .  S
N1661      O1665   1.262       .  A
N1661      O1666   1.262       .  A
N1664      O1668   1.262       .  A
N1664      O1667   1.262       .  A
C1669      C1670   1.403       .  A
C1669      C1674   1.396       .  A
C1669      H1676   1.084       .  S
C1670      C1671   1.410       .  A
C1671      C1672   1.391       .  A
C1671      N1678   1.429       .  S
C1672      C1673   1.403       .  A
C1672      H1677   1.084       .  S
C1673      C1674   1.412       .  A
C1674      N1675   1.429       .  S
N1675      O1679   1.262       .  A
N1675      O1680   1.262       .  A
N1678      O1682   1.262       .  A
N1678      O1681   1.262       .  A
C1683      C1684   1.411       .  A
C1683      C1688   1.412       .  A
C1683      H1690   1.083       .  S
C1684      C1685   1.422       .  A
C1685      C1686   1.396       .  A
C1685      N1692   1.429       .  S
C1686      C1687   1.392       .  A
C1686      H1691   1.085       .  S
C1687      C1688   1.407       .  A
C1688      N1689   1.429       .  S
N1689      O1693   1.262       .  A
N1689      O1694   1.262       .  A
N1692      O1696   1.262       .  A
N1692      O1695   1.261       .  A
C1697      C1698   1.402       .  A
C1697      C1702   1.398       .  A
C1697      H1704   1.084       .  S
C1698      C1699   1.413       .  A
C1699      C1700   1.401       .  A
C1699      N1706   1.428       .  S
C1700      C1701   1.404       .  A
C1700      H1705   1.084       .  S
C1701      C1702   1.413       .  A
C1702      N1703   1.429       .  S
N1703      O1707   1.262       .  A
N1703      O1708   1.262       .  A
N1706      O1710   1.262       .  A
N1706      O1709   1.261       .  A
C1711      C1712   1.405       .  A
C1711      C1716   1.403   1_455  A
C1711      H1718   1.084       .  S
C1712      C1713   1.417       .  A
C1713      C1714   1.411   1_455  A
C1713      N1720   1.428       .  S
C1714      C1715   1.408       .  A
C1714      H1719   1.084       .  S
C1715      C1716   1.416       .  A
C1716      N1717   1.428       .  S
N1717      O1721   1.262       .  A
N1717      O1722   1.262       .  A
N1720      O1724   1.262       .  A
N1720      O1723   1.262       .  A
C1725      C1726   1.404       .  A
C1725      C1730   1.394       .  A
C1725      H1732   1.084       .  S
C1726      C1727   1.412       .  A
C1727      C1728   1.403       .  A
C1727      N1734   1.428       .  S
C1728      C1729   1.404       .  A
C1728      H1733   1.084       .  S
C1729      C1730   1.411       .  A
C1730      N1731   1.429       .  S
N1731      O1735   1.262       .  A
N1731      O1736   1.262       .  A
N1734      O1738   1.262       .  A
N1734      O1737   1.262       .  A
C1739      C1740   1.400       .  A
C1739      C1744   1.408       .  A
C1739      H1746   1.084       .  S
C1740      C1741   1.413       .  A
C1741      C1742   1.402       .  A
C1741      N1748   1.429       .  S
C1742      C1743   1.408       .  A
C1742      H1747   1.071       .  S
C1743      C1744   1.431       .  A
C1744      N1745   1.428       .  S
N1745      O1749   1.262       .  A
N1745      O1750   1.263       .  A
N1748      O1752   1.262       .  A
N1748      O1751   1.262       .  A
C1753      C1754   1.407       .  A
C1753      C1758   1.404       .  A
C1753      H1760   1.084       .  S
C1754      C1755   1.415       .  A
C1755      C1756   1.401       .  A
C1755      N1762   1.429       .  S
C1756      C1757   1.404       .  A
C1756      H1761   1.084       .  S
C1757      C1758   1.414       .  A
C1758      N1759   1.429       .  S
N1759      O1763   1.262       .  A
N1759      O1764   1.262       .  A
N1762      O1766   1.262       .  A
N1762      O1765   1.262       .  A
C1767      C1768   1.407       .  A
C1767      C1772   1.407       .  A
C1767      H1774   1.084       .  S
C1768      C1769   1.414       .  A
C1769      C1770   1.394       .  A
C1769      N1776   1.429       .  S
C1770      C1771   1.404       .  A
C1770      H1775   1.084       .  S
C1771      C1772   1.414       .  A
C1772      N1773   1.428       .  S
N1773      O1777   1.262       .  A
N1773      O1778   1.262       .  A
N1776      O1780   1.262       .  A
N1776      O1779   1.262       .  A
C1781      C1782   1.402       .  A
C1781      C1786   1.398       .  A
C1781      H1788   1.084       .  S
C1782      C1783   1.413       .  A
C1783      C1784   1.411       .  A
C1783      N1790   1.428       .  S
C1784      C1785   1.414       .  A
C1784      H1789   1.077       .  S
C1785      C1786   1.424       .  A
C1786      N1787   1.431       .  S
N1787      O1791   1.262       .  A
N1787      O1792   1.262       .  A
N1790      O1794   1.262       .  A
N1790      O1793   1.262       .  A
C1795      C1796   1.404       .  A
C1795      C1800   1.397   1_655  A
C1795      H1802   1.084       .  S
C1796      C1797   1.413       .  A
C1797      C1798   1.397   1_655  A
C1797      N1804   1.429       .  S
C1798      C1799   1.403       .  A
C1798      H1803   1.084       .  S
C1799      C1800   1.410       .  A
C1800      N1801   1.429       .  S
N1801      O1805   1.262       .  A
N1801      O1806   1.262       .  A
N1804      O1808   1.262       .  A
N1804      O1807   1.262       .  A
C1809      C1810   1.400       .  A
C1809      C1814   1.396       .  A
C1809      H1816   1.084       .  S
C1810      C1811   1.412       .  A
C1811      C1812   1.406       .  A
C1811      N1818   1.428       .  S
C1812      C1813   1.406       .  A
C1812      H1817   1.084       .  S
C1813      C1814   1.417       .  A
C1814      N1815   1.430       .  S
N1815      O1819   1.262       .  A
N1815      O1820   1.262       .  A
N1818      O1822   1.262       .  A
N1818      O1821   1.262       .  A
C1823      C1824   1.403       .  A
C1823      C1828   1.396   1_655  A
C1823      H1830   1.084       .  S
C1824      C1825   1.412   1_655  A
C1825      C1826   1.399       .  A
C1825      N1832   1.428   1_455  S
C1826      C1827   1.404       .  A
C1826      H1831   1.084       .  S
C1827      C1828   1.412       .  A
C1828      N1829   1.430       .  S
N1829      O1833   1.262       .  A
N1829      O1834   1.262       .  A
N1832      O1836   1.262       .  A
N1832      O1835   1.262       .  A
C1837      C1838   1.408       .  A
C1837      C1842   1.412       .  A
C1837      H1844   1.084       .  S
C1838      C1839   1.415       .  A
C1839      C1840   1.406       .  A
C1839      N1846   1.429       .  S
C1840      C1841   1.408       .  A
C1840      H1845   1.084       .  S
C1841      C1842   1.416       .  A
C1842      N1843   1.428       .  S
N1843      O1847   1.262       .  A
N1843      O1848   1.262       .  A
N1846      O1850   1.262       .  A
N1846      O1849   1.262       .  A
C1851      C1852   1.399       .  A
C1851      C1856   1.393       .  A
C1851      H1858   1.085       .  S
C1852      C1853   1.412       .  A
C1853      C1854   1.409       .  A
C1853      N1860   1.428       .  S
C1854      C1855   1.408       .  A
C1854      H1859   1.083       .  S
C1855      C1856   1.416       .  A
C1856      N1857   1.429       .  S
N1857      O1861   1.262       .  A
N1857      O1862   1.262       .  A
N1860      O1864   1.262       .  A
N1860      O1863   1.262       .  A
C1865      C1866   1.404       .  A
C1865      C1870   1.413       .  A
C1865      H1872   1.084       .  S
C1866      C1867   1.408       .  A
C1867      C1868   1.403       .  A
C1867      N1874   1.429       .  S
C1868      C1869   1.409       .  A
C1868      H1873   1.084       .  S
C1869      C1870   1.418       .  A
C1870      N1871   1.427       .  S
N1871      O1875   1.262       .  A
N1871      O1876   1.262       .  A
N1874      O1878   1.262       .  A
N1874      O1877   1.262       .  A
C1879      C1880   1.404       .  A
C1879      C1884   1.413       .  A
C1879      H1886   1.083       .  S
C1880      C1881   1.411       .  A
C1881      C1882   1.405       .  A
C1881      N1888   1.431       .  S
C1882      C1883   1.410       .  A
C1882      H1887   1.084       .  S
C1883      C1884   1.417       .  A
C1884      N1885   1.427       .  S
N1885      O1889   1.262       .  A
N1885      O1890   1.262       .  A
N1888      O1892   1.262       .  A
N1888      O1891   1.262       .  A
C1893      C1894   1.416       .  A
C1893      C1898   1.411       .  A
C1893      H1900   1.076       .  S
C1894      C1895   1.423       .  A
C1895      C1896   1.399       .  A
C1895      N1902   1.426       .  S
C1896      C1897   1.397       .  A
C1896      H1901   1.085       .  S
C1897      C1898   1.411       .  A
C1898      N1899   1.428       .  S
N1899      O1903   1.262       .  A
N1899      O1904   1.262       .  A
N1902      O1906   1.261       .  A
N1902      O1905   1.260       .  A
C1907      C1908   1.405       .  A
C1907      C1912   1.402   1_565  A
C1907      H1914   1.072       .  S
C1908      C1909   1.422       .  A
C1909      C1910   1.405   1_565  A
C1909      N1916   1.426       .  S
C1910      C1911   1.402       .  A
C1910      H1915   1.083       .  S
C1911      C1912   1.414       .  A
C1912      N1913   1.429       .  S
N1913      O1917   1.262       .  A
N1913      O1918   1.262       .  A
N1916      O1920   1.262       .  A
N1916      O1919   1.262       .  A
C1921      C1922   1.401       .  A
C1921      C1926   1.401       .  A
C1921      H1928   1.083       .  S
C1922      C1923   1.418       .  A
C1923      C1924   1.402       .  A
C1923      N1930   1.427       .  S
C1924      C1925   1.402       .  A
C1924      H1929   1.082       .  S
C1925      C1926   1.424       .  A
C1926      N1927   1.431       .  S
N1927      O1931   1.262       .  A
N1927      O1932   1.261       .  A
N1930      O1934   1.262       .  A
N1930      O1933   1.262       .  A
C1935      C1936   1.404       .  A
C1935      C1940   1.403       .  A
C1935      H1942   1.084       .  S
C1936      C1937   1.418       .  A
C1937      C1938   1.413       .  A
C1937      N1944   1.429       .  S
C1938      C1939   1.407       .  A
C1938      H1943   1.084       .  S
C1939      C1940   1.414       .  A
C1940      N1941   1.428       .  S
N1941      O1945   1.262       .  A
N1941      O1946   1.262       .  A
N1944      O1948   1.262       .  A
N1944      O1947   1.262       .  A
C1949      C1950   1.396       .  A
C1949      C1954   1.392   1_545  A
C1949      H1956   1.085       .  S
C1950      C1951   1.407       .  A
C1951      C1952   1.413   1_545  A
C1951      N1958   1.429       .  S
C1952      C1953   1.410       .  A
C1952      H1957   1.083       .  S
C1953      C1954   1.408       .  A
C1954      N1955   1.425       .  S
N1955      O1959   1.261       .  A
N1955      O1960   1.262       .  A
N1958      O1962   1.262       .  A
N1958      O1961   1.262       .  A
C1963      C1964   1.403       .  A
C1963      C1968   1.400       .  A
C1963      H1970   1.084       .  S
C1964      C1965   1.415       .  A
C1965      C1966   1.405       .  A
C1965      N1972   1.427       .  S
C1966      C1967   1.404       .  A
C1966      H1971   1.084       .  S
C1967      C1968   1.414       .  A
C1968      N1969   1.428       .  S
N1969      O1973   1.262       .  A
N1969      O1974   1.262       .  A
N1972      O1976   1.261       .  A
N1972      O1975   1.262       .  A
C1977      C1978   1.415       .  A
C1977      C1982   1.407       .  A
C1977      H1984   1.075       .  S
C1978      C1979   1.422       .  A
C1979      C1980   1.403       .  A
C1979      N1986   1.430       .  S
C1980      C1981   1.404       .  A
C1980      H1985   1.084       .  S
C1981      C1982   1.411       .  A
C1982      N1983   1.429       .  S
N1983      O1987   1.262       .  A
N1983      O1988   1.262       .  A
N1986      O1990   1.262       .  A
N1986      O1989   1.262       .  A
C1991      C1992   1.405       .  A
C1991      C1996   1.403   1_556  A
C1991      H1998   1.084       .  S
C1992      C1993   1.412       .  A
C1993      C1994   1.401   1_556  A
C1993      N2000   1.429       .  S
C1994      C1995   1.406       .  A
C1994      H1999   1.084       .  S
C1995      C1996   1.415       .  A
C1996      N1997   1.428       .  S
N1997      O2001   1.262       .  A
N1997      O2002   1.262       .  A
N2000      O2004   1.262       .  A
N2000      O2003   1.262       .  A
C2005      C2006   1.402       .  A
C2005      C2010   1.393       .  A
C2005      H2012   1.084       .  S
C2006      C2007   1.411       .  A
C2007      C2008   1.398       .  A
C2007      N2014   1.428       .  S
C2008      C2009   1.403       .  A
C2008      H2013   1.084       .  S
C2009      C2010   1.411       .  A
C2010      N2011   1.429       .  S
N2011      O2015   1.262       .  A
N2011      O2016   1.262       .  A
N2014      O2018   1.262       .  A
N2014      O2017   1.262       .  A
C2019      C2020   1.404       .  A
C2019      C2024   1.412       .  A
C2019      H2026   1.084       .  S
C2020      C2021   1.419       .  A
C2021      C2022   1.406       .  A
C2021      N2028   1.429       .  S
C2022      C2023   1.406       .  A
C2022      H2027   1.084       .  S
C2023      C2024   1.418       .  A
C2024      N2025   1.425       .  S
N2025      O2029   1.262       .  A
N2025      O2030   1.262       .  A
N2028      O2032   1.262       .  A
N2028      O2031   1.262       .  A
C2033      C2034   1.400       .  A
C2033      C2038   1.395       .  A
C2033      H2040   1.084       .  S
C2034      C2035   1.409       .  A
C2035      C2036   1.395       .  A
C2035      N2042   1.430       .  S
C2036      C2037   1.404       .  A
C2036      H2041   1.084       .  S
C2037      C2038   1.410       .  A
C2038      N2039   1.429       .  S
N2039      O2043   1.262       .  A
N2039      O2044   1.262       .  A
N2042      O2046   1.262       .  A
N2042      O2045   1.262       .  A
C2047      C2048   1.405       .  A
C2047      C2052   1.410   1_554  A
C2047      H2054   1.084       .  S
C2048      C2049   1.418       .  A
C2049      C2050   1.411   1_554  A
C2049      N2056   1.427       .  S
C2050      C2051   1.405       .  A
C2050      H2055   1.084       .  S
C2051      C2052   1.418       .  A
C2052      N2053   1.428       .  S
N2053      O2057   1.261       .  A
N2053      O2058   1.262       .  A
N2056      O2060   1.262       .  A
N2056      O2059   1.262       .  A
C2061      C2062   1.406       .  A
C2061      C2066   1.415       .  A
C2061      H2068   1.084       .  S
C2062      C2063   1.407       .  A
C2063      C2064   1.398       .  A
C2063      N2070   1.429       .  S
C2064      C2065   1.408       .  A
C2064      H2069   1.084       .  S
C2065      C2066   1.417       .  A
C2066      N2067   1.428       .  S
N2067      O2071   1.262       .  A
N2067      O2072   1.262       .  A
N2070      O2074   1.261       .  A
N2070      O2073   1.262       .  A
C2075      C2076   1.404       .  A
C2075      C2080   1.395       .  A
C2075      H2082   1.084       .  S
C2076      C2077   1.412       .  A
C2077      C2078   1.405       .  A
C2077      N2084   1.427       .  S
C2078      C2079   1.403       .  A
C2078      H2083   1.084       .  S
C2079      C2080   1.406       .  A
C2080      N2081   1.427       .  S
N2081      O2085   1.262       .  A
N2081      O2086   1.261       .  A
N2084      O2088   1.262       .  A
N2084      O2087   1.262       .  A
C2089      C2090   1.401       .  A
C2089      C2094   1.392       .  A
C2089      H2096   1.084       .  S
C2090      C2091   1.415       .  A
C2091      C2092   1.409       .  A
C2091      N2098   1.428       .  S
C2092      C2093   1.406       .  A
C2092      H2097   1.084       .  S
C2093      C2094   1.411       .  A
C2094      N2095   1.429       .  S
N2095      O2099   1.262       .  A
N2095      O2100   1.262       .  A
N2098      O2102   1.262       .  A
N2098      O2101   1.262       .  A
C2103      C2104   1.407       .  A
C2103      C2108   1.398       .  A
C2103      H2110   1.084       .  S
C2104      C2105   1.415       .  A
C2105      C2106   1.410       .  A
C2105      N2112   1.427       .  S
C2106      C2107   1.403       .  A
C2106      H2111   1.084       .  S
C2107      C2108   1.410       .  A
C2108      N2109   1.430       .  S
N2109      O2113   1.262       .  A
N2109      O2114   1.262       .  A
N2112      O2116   1.262       .  A
N2112      O2115   1.262       .  A
C2117      C2118   1.404       .  A
C2117      C2122   1.399   1_554  A
C2117      H2124   1.084       .  S
C2118      C2119   1.414       .  A
C2119      C2120   1.399   1_554  A
C2119      N2126   1.429       .  S
C2120      C2121   1.404       .  A
C2120      H2125   1.084       .  S
C2121      C2122   1.412       .  A
C2122      N2123   1.428       .  S
N2123      O2127   1.262       .  A
N2123      O2128   1.262       .  A
N2126      O2130   1.262       .  A
N2126      O2129   1.262       .  A
C2131      C2132   1.404       .  A
C2131      C2136   1.402       .  A
C2131      H2138   1.084       .  S
C2132      C2133   1.415       .  A
C2133      C2134   1.407       .  A
C2133      N2140   1.428       .  S
C2134      C2135   1.407       .  A
C2134      H2139   1.084       .  S
C2135      C2136   1.416       .  A
C2136      N2137   1.429       .  S
N2137      O2141   1.262       .  A
N2137      O2142   1.262       .  A
N2140      O2144   1.262       .  A
N2140      O2143   1.262       .  A
C2145      C2146   1.402       .  A
C2145      C2150   1.405       .  A
C2145      H2152   1.084       .  S
C2146      C2147   1.410       .  A
C2147      C2148   1.402       .  A
C2147      N2154   1.428       .  S
C2148      C2149   1.402       .  A
C2148      H2153   1.084       .  S
C2149      C2150   1.415       .  A
C2150      N2151   1.429       .  S
N2151      O2155   1.262       .  A
N2151      O2156   1.262       .  A
N2154      O2158   1.262       .  A
N2154      O2157   1.262       .  A
C2159      C2160   1.404       .  A
C2159      C2164   1.398   1_556  A
C2159      H2166   1.084       .  S
C2160      C2161   1.412       .  A
C2161      C2162   1.397   1_556  A
C2161      N2168   1.428       .  S
C2162      C2163   1.403       .  A
C2162      H2167   1.084       .  S
C2163      C2164   1.412       .  A
C2164      N2165   1.429       .  S
N2165      O2169   1.262       .  A
N2165      O2170   1.262       .  A
N2168      O2172   1.262       .  A
N2168      O2171   1.262       .  A
C2173      C2174   1.407       .  A
C2173      C2178   1.408       .  A
C2173      H2180   1.084       .  S
C2174      C2175   1.414       .  A
C2175      C2176   1.405       .  A
C2175      N2182   1.428       .  S
C2176      C2177   1.406       .  A
C2176      H2181   1.084       .  S
C2177      C2178   1.416       .  A
C2178      N2179   1.429       .  S
N2179      O2183   1.262       .  A
N2179      O2184   1.262       .  A
N2182      O2186   1.262       .  A
N2182      O2185   1.262       .  A
C2187      C2188   1.407       .  A
C2187      C2192   1.401       .  A
C2187      H2194   1.084       .  S
C2188      C2189   1.415       .  A
C2189      C2190   1.406       .  A
C2189      N2196   1.428       .  S
C2190      C2191   1.405       .  A
C2190      H2195   1.084       .  S
C2191      C2192   1.411       .  A
C2192      N2193   1.429       .  S
N2193      O2197   1.262       .  A
N2193      O2198   1.262       .  A
N2196      O2200   1.262       .  A
N2196      O2199   1.262       .  A
C2201      C2202   1.413       .  A
C2201      C2206   1.402       .  A
C2201      H2208   1.076       .  S
C2202      C2203   1.419       .  A
C2203      C2204   1.405       .  A
C2203      N2210   1.431       .  S
C2204      C2205   1.408       .  A
C2204      H2209   1.084       .  S
C2205      C2206   1.410       .  A
C2206      N2207   1.428       .  S
N2207      O2211   1.262       .  A
N2207      O2212   1.262       .  A
N2210      O2214   1.261       .  A
N2210      O2213   1.262       .  A
C2215      C2216   1.403       .  A
C2215      C2220   1.401       .  A
C2215      H2222   1.084       .  S
C2216      C2217   1.416       .  A
C2217      C2218   1.401       .  A
C2217      N2224   1.429       .  S
C2218      C2219   1.401       .  A
C2218      H2223   1.084       .  S
C2219      C2220   1.411       .  A
C2220      N2221   1.428       .  S
N2221      O2225   1.262       .  A
N2221      O2226   1.262       .  A
N2224      O2228   1.262       .  A
N2224      O2227   1.262       .  A
C2229      C2230   1.406       .  A
C2229      C2234   1.404       .  A
C2229      H2236   1.084       .  S
C2230      C2231   1.416       .  A
C2231      C2232   1.409       .  A
C2231      N2238   1.428       .  S
C2232      C2233   1.407       .  A
C2232      H2237   1.084       .  S
C2233      C2234   1.413       .  A
C2234      N2235   1.429       .  S
N2235      O2239   1.262       .  A
N2235      O2240   1.262       .  A
N2238      O2242   1.262       .  A
N2238      O2241   1.262       .  A
C2243      C2244   1.405       .  A
C2243      C2248   1.397       .  A
C2243      H2250   1.084       .  S
C2244      C2245   1.411       .  A
C2245      C2246   1.404       .  A
C2245      N2252   1.428       .  S
C2246      C2247   1.405       .  A
C2246      H2251   1.084       .  S
C2247      C2248   1.408       .  A
C2248      N2249   1.429       .  S
N2249      O2253   1.262       .  A
N2249      O2254   1.262       .  A
N2252      O2256   1.262       .  A
N2252      O2255   1.262       .  A
C2257      C2258   1.403       .  A
C2257      C2262   1.398       .  A
C2257      H2264   1.084       .  S
C2258      C2259   1.412       .  A
C2259      C2260   1.395       .  A
C2259      N2266   1.428       .  S
C2260      C2261   1.402       .  A
C2260      H2265   1.084       .  S
C2261      C2262   1.412       .  A
C2262      N2263   1.428       .  S
N2263      O2267   1.261       .  A
N2263      O2268   1.262       .  A
N2266      O2270   1.262       .  A
N2266      O2269   1.262       .  A
C2271      C2272   1.405       .  A
C2271      C2276   1.408       .  A
C2271      H2278   1.084       .  S
C2272      C2273   1.417       .  A
C2273      C2274   1.400       .  A
C2273      N2280   1.429       .  S
C2274      C2275   1.400       .  A
C2274      H2279   1.084       .  S
C2275      C2276   1.413       .  A
C2276      N2277   1.428       .  S
N2277      O2281   1.261       .  A
N2277      O2282   1.262       .  A
N2280      O2284   1.262       .  A
N2280      O2283   1.262       .  A
C2285      C2286   1.402       .  A
C2285      C2290   1.394       .  A
C2285      H2292   1.084       .  S
C2286      C2287   1.413       .  A
C2287      C2288   1.400       .  A
C2287      N2294   1.429       .  S
C2288      C2289   1.404       .  A
C2288      H2293   1.084       .  S
C2289      C2290   1.412       .  A
C2290      N2291   1.429       .  S
N2291      O2295   1.262       .  A
N2291      O2296   1.262       .  A
N2294      O2298   1.262       .  A
N2294      O2297   1.262       .  A
C2299      C2300   1.403       .  A
C2299      C2304   1.403       .  A
C2299      H2306   1.084       .  S
C2300      C2301   1.413       .  A
C2301      C2302   1.410       .  A
C2301      N2308   1.428       .  S
C2302      C2303   1.416       .  A
C2302      H2307   1.076       .  S
C2303      C2304   1.421       .  A
C2304      N2305   1.429       .  S
N2305      O2309   1.261       .  A
N2305      O2310   1.261       .  A
N2308      O2312   1.262       .  A
N2308      O2311   1.262       .  A
C2313      C2314   1.406       .  A
C2313      C2318   1.408   1_556  A
C2313      H2320   1.084       .  S
C2314      C2315   1.412       .  A
C2315      C2316   1.405   1_556  A
C2315      N2322   1.428       .  S
C2316      C2317   1.408       .  A
C2316      H2321   1.084       .  S
C2317      C2318   1.416       .  A
C2318      N2319   1.428       .  S
N2319      O2323   1.262       .  A
N2319      O2324   1.262       .  A
N2322      O2326   1.262       .  A
N2322      O2325   1.262       .  A
C2327      C2328   1.408       .  A
C2327      C2332   1.409       .  A
C2327      H2334   1.083       .  S
C2328      C2329   1.416       .  A
C2329      C2330   1.394       .  A
C2329      N2336   1.429       .  S
C2330      C2331   1.399       .  A
C2330      H2335   1.085       .  S
C2331      C2332   1.412       .  A
C2332      N2333   1.428       .  S
N2333      O2337   1.262       .  A
N2333      O2338   1.262       .  A
N2336      O2340   1.262       .  A
N2336      O2339   1.262       .  A
C2341      C2342   1.403   1_556  A
C2341      C2346   1.395       .  A
C2341      H2348   1.084   1_556  S
C2342      C2343   1.412   1_554  A
C2343      C2344   1.396       .  A
C2343      N2350   1.429   1_556  S
C2344      C2345   1.404       .  A
C2344      H2349   1.084       .  S
C2345      C2346   1.411       .  A
C2346      N2347   1.429       .  S
N2347      O2351   1.262       .  A
N2347      O2352   1.262       .  A
N2350      O2354   1.262       .  A
N2350      O2353   1.262       .  A
C2355      C2356   1.406       .  A
C2355      C2360   1.403       .  A
C2355      H2362   1.084       .  S
C2356      C2357   1.418       .  A
C2357      C2358   1.407       .  A
C2357      N2364   1.428       .  S
C2358      C2359   1.404       .  A
C2358      H2363   1.084       .  S
C2359      C2360   1.413       .  A
C2360      N2361   1.429       .  S
N2361      O2365   1.262       .  A
N2361      O2366   1.262       .  A
N2364      O2368   1.262       .  A
N2364      O2367   1.262       .  A
C2369      C2370   1.418       .  A
C2369      C2374   1.406       .  A
C2369      H2376   1.076       .  S
C2370      C2371   1.420       .  A
C2371      C2372   1.407       .  A
C2371      N2378   1.428       .  S
C2372      C2373   1.406       .  A
C2372      H2377   1.084       .  S
C2373      C2374   1.411       .  A
C2374      N2375   1.429       .  S
N2375      O2379   1.262       .  A
N2375      O2380   1.262       .  A
N2378      O2382   1.262       .  A
N2378      O2381   1.262       .  A
C2383      C2384   1.404       .  A
C2383      C2388   1.403   1_554  A
C2383      H2390   1.084       .  S
C2384      C2385   1.414       .  A
C2385      C2386   1.405   1_554  A
C2385      N2392   1.426       .  S
C2386      C2387   1.404       .  A
C2386      H2391   1.084       .  S
C2387      C2388   1.415       .  A
C2388      N2389   1.428       .  S
N2389      O2393   1.262       .  A
N2389      O2394   1.262       .  A
N2392      O2396   1.259       .  A
N2392      O2395   1.262       .  A
C2397      C2398   1.406       .  A
C2397      C2402   1.404       .  A
C2397      H2404   1.084       .  S
C2398      C2399   1.411       .  A
C2399      C2400   1.398       .  A
C2399      N2406   1.425       .  S
C2400      C2401   1.401       .  A
C2400      H2405   1.084       .  S
C2401      C2402   1.411       .  A
C2402      N2403   1.428       .  S
N2403      O2407   1.262       .  A
N2403      O2408   1.262       .  A
N2406      O2410   1.262       .  A
N2406      O2409   1.261       .  A
C2411      C2412   1.405       .  A
C2411      C2416   1.398       .  A
C2411      H2418   1.084       .  S
C2412      C2413   1.412       .  A
C2413      C2414   1.396       .  A
C2413      N2420   1.429       .  S
C2414      C2415   1.402       .  A
C2414      H2419   1.084       .  S
C2415      C2416   1.410       .  A
C2416      N2417   1.430       .  S
N2417      O2421   1.262       .  A
N2417      O2422   1.262       .  A
N2420      O2424   1.262       .  A
N2420      O2423   1.262       .  A
C2425      C2426   1.402       .  A
C2425      C2430   1.400       .  A
C2425      H2432   1.083       .  S
C2426      C2427   1.416       .  A
C2427      C2428   1.410       .  A
C2427      N2434   1.428       .  S
C2428      C2429   1.406       .  A
C2428      H2433   1.083       .  S
C2429      C2430   1.420       .  A
C2430      N2431   1.430       .  S
N2431      O2435   1.262       .  A
N2431      O2436   1.262       .  A
N2434      O2438   1.262       .  A
N2434      O2437   1.262       .  A
C2439      C2440   1.416       .  A
C2439      C2444   1.403       .  A
C2439      H2446   1.077       .  S
C2440      C2441   1.420       .  A
C2441      C2442   1.405       .  A
C2441      N2448   1.429       .  S
C2442      C2443   1.405       .  A
C2442      H2447   1.084       .  S
C2443      C2444   1.408       .  A
C2444      N2445   1.428       .  S
N2445      O2449   1.262       .  A
N2445      O2450   1.262       .  A
N2448      O2452   1.262       .  A
N2448      O2451   1.262       .  A
C2453      C2454   1.415       .  A
C2453      C2458   1.403       .  A
C2453      H2460   1.075       .  S
C2454      C2455   1.422       .  A
C2455      C2456   1.400       .  A
C2455      N2462   1.430       .  S
C2456      C2457   1.401       .  A
C2456      H2461   1.084       .  S
C2457      C2458   1.407       .  A
C2458      N2459   1.429       .  S
N2459      O2463   1.262       .  A
N2459      O2464   1.262       .  A
N2462      O2466   1.262       .  A
N2462      O2465   1.262       .  A
C2467      C2468   1.402       .  A
C2467      C2472   1.401       .  A
C2467      H2474   1.084       .  S
C2468      C2469   1.411       .  A
C2469      C2470   1.408       .  A
C2469      N2476   1.428       .  S
C2470      C2471   1.406       .  A
C2470      H2475   1.084       .  S
C2471      C2472   1.416       .  A
C2472      N2473   1.429       .  S
N2473      O2477   1.262       .  A
N2473      O2478   1.262       .  A
N2476      O2480   1.262       .  A
N2476      O2479   1.262       .  A
C2481      C2482   1.404       .  A
C2481      C2486   1.400       .  A
C2481      H2488   1.084       .  S
C2482      C2483   1.413       .  A
C2483      C2484   1.402       .  A
C2483      N2490   1.429       .  S
C2484      C2485   1.402       .  A
C2484      H2489   1.084       .  S
C2485      C2486   1.409       .  A
C2486      N2487   1.428       .  S
N2487      O2491   1.262       .  A
N2487      O2492   1.262       .  A
N2490      O2494   1.261       .  A
N2490      O2493   1.262       .  A
C2495      C2496   1.399       .  A
C2495      C2500   1.398       .  A
C2495      H2502   1.084       .  S
C2496      C2497   1.416       .  A
C2497      C2498   1.410       .  A
C2497      N2504   1.428       .  S
C2498      C2499   1.405       .  A
C2498      H2503   1.083       .  S
C2499      C2500   1.417       .  A
C2500      N2501   1.427       .  S
N2501      O2505   1.261       .  A
N2501      O2506   1.262       .  A
N2504      O2508   1.262       .  A
N2504      O2507   1.262       .  A
C2509      C2510   1.410       .  A
C2509      C2514   1.408       .  A
C2509      H2516   1.079       .  S
C2510      C2511   1.427       .  A
C2511      C2512   1.402       .  A
C2511      N2518   1.433       .  S
C2512      C2513   1.401       .  A
C2512      H2517   1.084       .  S
C2513      C2514   1.413       .  A
C2514      N2515   1.428       .  S
N2515      O2519   1.262       .  A
N2515      O2520   1.262       .  A
N2518      O2522   1.262       .  A
N2518      O2521   1.261       .  A
C2523      C2524   1.402       .  A
C2523      C2528   1.393   1_455  A
C2523      H2530   1.082       .  S
C2524      C2525   1.413       .  A
C2525      C2526   1.409   1_455  A
C2525      N2532   1.428       .  S
C2526      C2527   1.406       .  A
C2526      H2531   1.084       .  S
C2527      C2528   1.413       .  A
C2528      N2529   1.430       .  S
N2529      O2533   1.262       .  A
N2529      O2534   1.262       .  A
N2532      O2536   1.262       .  A
N2532      O2535   1.262       .  A
C2537      C2538   1.404       .  A
C2537      C2542   1.413       .  A
C2537      H2544   1.084       .  S
C2538      C2539   1.401       .  A
C2539      C2540   1.399       .  A
C2539      N2546   1.426       .  S
C2540      C2541   1.411       .  A
C2540      H2545   1.083       .  S
C2541      C2542   1.417       .  A
C2542      N2543   1.427       .  S
N2543      O2547   1.262       .  A
N2543      O2548   1.262       .  A
N2546      O2550   1.261       .  A
N2546      O2549   1.262       .  A
C2551      C2552   1.403       .  A
C2551      C2556   1.397       .  A
C2551      H2558   1.084       .  S
C2552      C2553   1.422       .  A
C2553      C2554   1.411       .  A
C2553      N2560   1.436       .  S
C2554      C2555   1.405       .  A
C2554      H2559   1.083       .  S
C2555      C2556   1.416       .  A
C2556      N2557   1.429       .  S
N2557      O2561   1.262       .  A
N2557      O2562   1.262       .  A
N2560      O2564   1.262       .  A
N2560      O2563   1.263       .  A
C2565      C2566   1.403       .  A
C2565      C2570   1.400       .  A
C2565      H2572   1.082       .  S
C2566      C2567   1.421       .  A
C2567      C2568   1.401   1_455  A
C2567      N2574   1.429       .  S
C2568      C2569   1.401       .  A
C2568      H2573   1.083       .  S
C2569      C2570   1.416   1_655  A
C2570      N2571   1.430   1_455  S
N2571      O2575   1.262       .  A
N2571      O2576   1.262       .  A
N2574      O2578   1.262       .  A
N2574      O2577   1.262       .  A
C2579      C2580   1.408       .  A
C2579      C2584   1.406       .  A
C2579      H2586   1.084       .  S
C2580      C2581   1.414       .  A
C2581      C2582   1.396       .  A
C2581      N2588   1.429       .  S
C2582      C2583   1.402       .  A
C2582      H2587   1.084       .  S
C2583      C2584   1.413       .  A
C2584      N2585   1.429       .  S
N2585      O2589   1.262       .  A
N2585      O2590   1.262       .  A
N2588      O2592   1.261       .  A
N2588      O2591   1.262       .  A
C2593      C2594   1.408       .  A
C2593      C2598   1.412       .  A
C2593      H2600   1.083       .  S
C2594      C2595   1.419       .  A
C2595      C2596   1.405       .  A
C2595      N2602   1.429       .  S
C2596      C2597   1.406       .  A
C2596      H2601   1.084       .  S
C2597      C2598   1.416       .  A
C2598      N2599   1.428       .  S
N2599      O2603   1.262       .  A
N2599      O2604   1.262       .  A
N2602      O2606   1.262       .  A
N2602      O2605   1.261       .  A
C2607      C2608   1.412       .  A
C2607      C2612   1.408       .  A
C2607      H2614   1.078       .  S
C2608      C2609   1.425       .  A
C2609      C2610   1.405       .  A
C2609      N2616   1.431       .  S
C2610      C2611   1.403       .  A
C2610      H2615   1.084       .  S
C2611      C2612   1.414       .  A
C2612      N2613   1.428       .  S
N2613      O2617   1.262       .  A
N2613      O2618   1.262       .  A
N2616      O2620   1.262       .  A
N2616      O2619   1.262       .  A
C2621      C2622   1.403       .  A
C2621      C2626   1.413       .  A
C2621      H2628   1.084       .  S
C2622      C2623   1.412       .  A
C2623      C2624   1.398       .  A
C2623      N2630   1.429       .  S
C2624      C2625   1.403       .  A
C2624      H2629   1.082       .  S
C2625      C2626   1.423       .  A
C2626      N2627   1.428       .  S
N2627      O2631   1.262       .  A
N2627      O2632   1.262       .  A
N2630      O2634   1.262       .  A
N2630      O2633   1.262       .  A
C2635      C2636   1.405       .  A
C2635      C2640   1.404       .  A
C2635      H2642   1.084       .  S
C2636      C2637   1.406       .  A
C2637      C2638   1.403       .  A
C2637      N2644   1.429       .  S
C2638      C2639   1.418       .  A
C2638      H2643   1.073       .  S
C2639      C2640   1.420       .  A
C2640      N2641   1.430       .  S
N2641      O2645   1.262       .  A
N2641      O2646   1.262       .  A
N2644      O2648   1.262       .  A
N2644      O2647   1.262       .  A
C2649      C2650   1.401       .  A
C2649      C2654   1.403       .  A
C2649      H2656   1.084       .  S
C2650      C2651   1.410       .  A
C2651      C2652   1.405       .  A
C2651      N2658   1.428       .  S
C2652      C2653   1.404       .  A
C2652      H2657   1.084       .  S
C2653      C2654   1.419       .  A
C2654      N2655   1.430       .  S
N2655      O2659   1.262       .  A
N2655      O2660   1.262       .  A
N2658      O2662   1.262       .  A
N2658      O2661   1.262       .  A
C2663      C2664   1.416       .  A
C2663      C2668   1.403       .  A
C2663      H2670   1.074       .  S
C2664      C2665   1.421       .  A
C2665      C2666   1.404       .  A
C2665      N2672   1.430       .  S
C2666      C2667   1.405       .  A
C2666      H2671   1.084       .  S
C2667      C2668   1.408       .  A
C2668      N2669   1.429       .  S
N2669      O2673   1.262       .  A
N2669      O2674   1.262       .  A
N2672      O2676   1.262       .  A
N2672      O2675   1.262       .  A
C2677      C2678   1.401       .  A
C2677      C2682   1.405       .  A
C2677      H2684   1.078       .  S
C2678      C2679   1.414       .  A
C2679      C2680   1.403       .  A
C2679      N2686   1.429       .  S
C2680      C2681   1.404       .  A
C2680      H2685   1.084       .  S
C2681      C2682   1.412       .  A
C2682      N2683   1.427       .  S
N2683      O2687   1.261       .  A
N2683      O2688   1.261       .  A
N2686      O2690   1.262       .  A
N2686      O2689   1.262       .  A
C2691      C2692   1.411       .  A
C2691      C2696   1.404       .  A
C2691      H2698   1.083       .  S
C2692      C2693   1.420       .  A
C2693      C2694   1.408   1_556  A
C2693      N2700   1.427       .  S
C2694      C2695   1.403       .  A
C2694      H2699   1.078       .  S
C2695      C2696   1.415   1_554  A
C2696      N2697   1.430   1_556  S
N2697      O2701   1.262       .  A
N2697      O2702   1.262       .  A
N2700      O2704   1.262       .  A
N2700      O2703   1.262       .  A
C2705      C2706   1.402       .  A
C2705      C2710   1.400       .  A
C2705      H2712   1.084       .  S
C2706      C2707   1.411       .  A
C2707      C2708   1.409       .  A
C2707      N2714   1.428       .  S
C2708      C2709   1.415       .  A
C2708      H2713   1.076       .  S
C2709      C2710   1.423       .  A
C2710      N2711   1.430       .  S
N2711      O2715   1.262       .  A
N2711      O2716   1.261       .  A
N2714      O2718   1.262       .  A
N2714      O2717   1.262       .  A
C2719      C2720   1.411       .  A
C2719      C2724   1.411       .  A
C2719      H2726   1.083       .  S
C2720      C2721   1.420       .  A
C2721      C2722   1.402       .  A
C2721      N2728   1.428       .  S
C2722      C2723   1.403       .  A
C2722      H2727   1.084       .  S
C2723      C2724   1.414       .  A
C2724      N2725   1.428       .  S
N2725      O2729   1.262       .  A
N2725      O2730   1.262       .  A
N2728      O2732   1.262       .  A
N2728      O2731   1.262       .  A
C2733      C2734   1.406       .  A
C2733      C2738   1.403       .  A
C2733      H2740   1.082       .  S
C2734      C2735   1.415       .  A
C2735      C2736   1.398   1_556  A
C2735      N2742   1.427       .  S
C2736      C2737   1.402       .  A
C2736      H2741   1.082       .  S
C2737      C2738   1.417   1_554  A
C2738      N2739   1.429   1_556  S
N2739      O2743   1.262       .  A
N2739      O2744   1.262       .  A
N2742      O2746   1.262       .  A
N2742      O2745   1.262       .  A
C2747      C2748   1.408       .  A
C2747      C2752   1.402       .  A
C2747      H2754   1.083       .  S
C2748      C2749   1.417       .  A
C2749      C2750   1.400       .  A
C2749      N2756   1.427       .  S
C2750      C2751   1.395       .  A
C2750      H2755   1.082       .  S
C2751      C2752   1.406       .  A
C2752      N2753   1.427       .  S
N2753      O2757   1.262       .  A
N2753      O2758   1.262       .  A
N2756      O2760   1.261       .  A
N2756      O2759   1.262       .  A
C2761      C2762   1.402       .  A
C2761      C2766   1.405       .  A
C2761      H2768   1.083       .  S
C2762      C2763   1.418       .  A
C2763      C2764   1.411       .  A
C2763      N2770   1.428       .  S
C2764      C2765   1.405       .  A
C2764      H2769   1.083       .  S
C2765      C2766   1.421       .  A
C2766      N2767   1.430       .  S
N2767      O2771   1.262       .  A
N2767      O2772   1.262       .  A
N2770      O2774   1.262       .  A
N2770      O2773   1.262       .  A
C2775      C2776   1.404       .  A
C2775      C2780   1.405       .  A
C2775      H2782   1.084       .  S
C2776      C2777   1.411       .  A
C2777      C2778   1.407       .  A
C2777      N2784   1.429       .  S
C2778      C2779   1.415       .  A
C2778      H2783   1.075       .  S
C2779      C2780   1.422       .  A
C2780      N2781   1.429       .  S
N2781      O2785   1.261       .  A
N2781      O2786   1.261       .  A
N2784      O2788   1.262       .  A
N2784      O2787   1.262       .  A
C2789      C2790   1.394       .  A
C2789      C2794   1.390       .  A
C2789      H2796   1.126       .  S
C2790      C2791   1.425       .  A
C2791      C2792   1.411       .  A
C2791      N2798   1.428       .  S
C2792      C2793   1.403       .  A
C2792      H2797   1.085       .  S
C2793      C2794   1.414       .  A
C2794      N2795   1.428       .  S
N2795      O2799   1.261       .  A
N2795      O2800   1.262       .  A
N2798      O2802   1.262       .  A
N2798      O2801   1.262       .  A
C2803      C2804   1.417       .  A
C2803      C2808   1.403       .  A
C2803      H2810   1.073       .  S
C2804      C2805   1.420       .  A
C2805      C2806   1.404       .  A
C2805      N2812   1.430       .  S
C2806      C2807   1.406       .  A
C2806      H2811   1.084       .  S
C2807      C2808   1.408       .  A
C2808      N2809   1.429       .  S
N2809      O2813   1.262       .  A
N2809      O2814   1.262       .  A
N2812      O2816   1.262       .  A
N2812      O2815   1.262       .  A
C2817      C2818   1.402       .  A
C2817      C2822   1.401   1_545  A
C2817      H2824   1.084       .  S
C2818      C2819   1.415       .  A
C2819      C2820   1.405   1_545  A
C2819      N2826   1.427       .  S
C2820      C2821   1.404       .  A
C2820      H2825   1.082       .  S
C2821      C2822   1.416       .  A
C2822      N2823   1.428       .  S
N2823      O2827   1.262       .  A
N2823      O2828   1.262       .  A
N2826      O2830   1.260       .  A
N2826      O2829   1.262       .  A
C2831      C2832   1.413       .  A
C2831      C2836   1.408       .  A
C2831      H2838   1.077       .  S
C2832      C2833   1.423       .  A
C2833      C2834   1.399       .  A
C2833      N2840   1.431       .  S
C2834      C2835   1.401       .  A
C2834      H2839   1.084       .  S
C2835      C2836   1.413       .  A
C2836      N2837   1.428       .  S
N2837      O2841   1.262       .  A
N2837      O2842   1.262       .  A
N2840      O2844   1.262       .  A
N2840      O2843   1.262       .  A
C2845      C2846   1.405       .  A
C2845      C2850   1.409       .  A
C2845      H2852   1.084       .  S
C2846      C2847   1.416       .  A
C2847      C2848   1.405       .  A
C2847      N2854   1.430       .  S
C2848      C2849   1.407       .  A
C2848      H2853   1.084       .  S
C2849      C2850   1.416       .  A
C2850      N2851   1.428       .  S
N2851      O2855   1.262       .  A
N2851      O2856   1.262       .  A
N2854      O2858   1.261       .  A
N2854      O2857   1.262       .  A
C2859      C2860   1.413       .  A
C2859      C2864   1.406       .  A
C2859      H2866   1.083       .  S
C2860      C2861   1.421       .  A
C2861      C2862   1.412       .  A
C2861      N2868   1.426       .  S
C2862      C2863   1.402       .  A
C2862      H2867   1.083       .  S
C2863      C2864   1.407       .  A
C2864      N2865   1.428       .  S
N2865      O2869   1.262       .  A
N2865      O2870   1.261       .  A
N2868      O2872   1.261       .  A
N2868      O2871   1.262       .  A
C2873      C2874   1.401       .  A
C2873      C2878   1.399       .  A
C2873      H2880   1.084       .  S
C2874      C2875   1.414       .  A
C2875      C2876   1.408       .  A
C2875      N2882   1.429       .  S
C2876      C2877   1.404       .  A
C2876      H2881   1.084       .  S
C2877      C2878   1.413       .  A
C2878      N2879   1.429       .  S
N2879      O2883   1.262       .  A
N2879      O2884   1.262       .  A
N2882      O2886   1.262       .  A
N2882      O2885   1.262       .  A
C2887      C2888   1.418       .  A
C2887      C2892   1.401       .  A
C2887      H2894   1.072       .  S
C2888      C2889   1.421       .  A
C2889      C2890   1.406       .  A
C2889      N2896   1.429       .  S
C2890      C2891   1.406       .  A
C2890      H2895   1.084       .  S
C2891      C2892   1.407       .  A
C2892      N2893   1.429       .  S
N2893      O2897   1.262       .  A
N2893      O2898   1.262       .  A
N2896      O2900   1.262       .  A
N2896      O2899   1.262       .  A
C2901      C2902   1.408       .  A
C2901      C2906   1.403   1_545  A
C2901      H2908   1.084       .  S
C2902      C2903   1.419       .  A
C2903      C2904   1.395   1_545  A
C2903      N2910   1.424       .  S
C2904      C2905   1.389       .  A
C2904      H2909   1.083       .  S
C2905      C2906   1.407       .  A
C2906      N2907   1.427       .  S
N2907      O2911   1.261       .  A
N2907      O2912   1.262       .  A
N2910      O2914   1.262       .  A
N2910      O2913   1.260       .  A
C2915      C2916   1.405       .  A
C2915      C2920   1.395       .  A
C2915      H2922   1.086       .  S
C2916      C2917   1.410       .  A
C2917      C2918   1.402       .  A
C2917      N2924   1.429       .  S
C2918      C2919   1.401       .  A
C2918      H2923   1.126       .  S
C2919      C2920   1.418       .  A
C2920      N2921   1.433       .  S
N2921      O2925   1.262       .  A
N2921      O2926   1.262       .  A
N2924      O2928   1.262       .  A
N2924      O2927   1.261       .  A
