geometry optimzed in LAMMPS
_audit_creation_date              2020-11-30 
_audit_creation_method            'lammps2cif' 
_symmetry_space_group_name_H-M    'P1' 
_symmetry_Int_Tables_number       1 
_symmetry_cell_setting            triclinic 
loop_ 
_symmetry_equiv_pos_as_xyz 
  x,y,z 
_cell_length_a                    44.01572049 
_cell_length_b                    30.45625849768676 
_cell_length_c                    30.66313407615383 
_cell_angle_alpha                 91.63329526790594 
_cell_angle_beta                  89.61165429167662 
_cell_angle_gamma                 90.05667072807397 
loop_ 
_atom_site_label 
_atom_site_type_symbol 
_atom_site_fract_x 
_atom_site_fract_y 
_atom_site_fract_z 
_atom_site_charge 
O1          O  0.70523518  0.34111180  0.31465743    -0.80800
O2          O  0.56390285  0.30795305  0.33942360    -0.65500
O3          O  0.64323480  0.33854719  0.29887472    -1.12100
C4          C  0.63088579  0.45672345  0.40520897     1.06100
O5          O  0.55007484  0.37745986  0.33305024    -0.78700
O6          O  0.58636199  0.45009207  0.32618203    -0.66300
Ni7        Ni  0.67545698  0.29720827  0.29871486     1.34900
C8          C  0.60640562  0.45111421  0.29629134     0.84800
O9          O  0.60154526  0.27304079  0.27765507    -0.79300
O10         O  0.64953158  0.24987082  0.27929635    -0.89500
C11         C  0.54332058  0.33686437  0.33495911     0.84400
O12         O  0.67020177  0.28052855  0.35819231    -0.67700
O13         O  0.60388359  0.44220543  0.40985570    -0.87000
C14         C  0.64576542  0.26652486  0.37543387     0.85200
C15         C  0.62209913  0.24482752  0.26754278     1.06800
H16         H  0.61506251  0.35631801  0.38923453     0.38600
O17         O  0.61025600  0.36812624  0.36124819    -1.09700
O18         O  0.62817487  0.42405108  0.29340794    -0.66300
Ni19       Ni  0.64705157  0.38937420  0.33674659     1.26300
O20         O  0.61953963  0.27872150  0.36261835    -0.66600
O21         O  0.64948256  0.44043520  0.37652238    -0.78900
C22         C  0.70650052  0.38116702  0.30372639     0.84600
O23         O  0.68404500  0.40679610  0.30921601    -0.66000
Ni24       Ni  0.57810306  0.40881970  0.37107645     1.27400
Ni25       Ni  0.60466601  0.32036284  0.32008888     1.26100
H26         H  0.64076861  0.34762571  0.26913508     0.39100
C27         C  0.58774046  0.08032764  0.16844195    -0.02400
C28         C  0.67019449  0.12664315  0.50615322    -0.02400
O29         O  0.79571155  0.20378391  0.04862732    -0.80800
O30         O  0.93672143  0.21953862  0.09891290    -0.65500
O31         O  0.85928007  0.19477528  0.04612001    -1.12100
C32         C  0.85529236  0.08458604  0.15528881     1.06100
O33         O  0.94635129  0.14845072  0.09587707    -0.78700
O34         O  0.90847730  0.08288755  0.07749205    -0.66300
Ni35       Ni  0.83046431  0.23981496  0.03488873     1.34900
C36         C  0.88941330  0.08140226  0.04668670     0.84800
O37         O  0.90728224  0.25446789  0.03252723    -0.79300
O38         O  0.86122150  0.28046384  0.01650091    -0.89500
C39         C  0.95562333  0.18787370  0.09459489     0.84400
O40         O  0.83087106  0.26555264  0.09264465    -0.67700
O41         O  0.88374143  0.09123351  0.15883335    -0.87000
C42         C  0.85309364  0.27498544  0.11764792     0.85200
C43         C  0.89006401  0.28269825  0.01546910     1.06800
H44         H  0.87955341  0.18037915  0.14114781     0.38600
O45         O  0.88510534  0.16619804  0.11366160    -1.09700
O46         O  0.86638764  0.10629658  0.04543866    -0.66300
Ni47       Ni  0.84834858  0.14883624  0.08535835     1.26300
O48         O  0.87937431  0.25659834  0.11327139    -0.66600
O49         O  0.83879299  0.10310852  0.12672287    -0.78900
C50         C  0.79147427  0.16245183  0.04496923     0.84600
O51         O  0.81162632  0.13491403  0.05518007    -0.66000
Ni52       Ni  0.91380335  0.12182168  0.12685961     1.27400
Ni53       Ni  0.89681531  0.21057934  0.07370899     1.26100
H54         H  0.86435777  0.18155528  0.01799524     0.39100
C55         C  0.91627350  0.42699234  0.42393691    -0.02400
C56         C  0.83509396  0.41709568  0.25812965    -0.02400
O57         O  0.29212278  0.06489027  0.16088417    -0.80800
O58         O  0.43610823  0.05299813  0.15085694    -0.65500
O59         O  0.35356217  0.07518971  0.18334144    -1.12100
C60         C  0.36483919  0.19257421  0.08665064     1.06100
O61         O  0.44841897  0.12250535  0.16187644    -0.78700
O62         O  0.40736216  0.18168516  0.18179285    -0.66300
Ni63       Ni  0.32548786  0.02770797  0.17733003     1.34900
C64         C  0.38282656  0.18275220  0.20332181     0.84800
O65         O  0.39875529  0.02019075  0.20929332    -0.79300
O66         O  0.35499172  0.98526670  0.19674130    -0.89500
C67         C  0.45572003  0.08248155  0.15854815     0.84400
O68         O  0.33485202  0.01578630  0.11710669    -0.67700
O69         O  0.39305223  0.18934911  0.09521495    -0.87000
C70         C  0.36095376  0.00508970  0.10270634     0.85200
C71         C  0.38107472  0.98821521  0.21479464     1.06800
H72         H  0.38867079  0.09557929  0.09701135     0.38600
O73         O  0.38915223  0.10788236  0.12648090    -1.09700
O74         O  0.35901829  0.16254440  0.19134469    -0.66300
Ni75       Ni  0.34837538  0.12216536  0.14454534     1.26300
O76         O  0.38525257  0.01795020  0.12183143    -0.66600
O77         O  0.34455642  0.16865539  0.10399312    -0.78900
C78         C  0.28729223  0.10520113  0.17032684     0.84600
O79         O  0.30790181  0.13376820  0.16494791    -0.66000
Ni80       Ni  0.41911916  0.15353033  0.12849494     1.27400
Ni81       Ni  0.39459948  0.06279785  0.16670152     1.26100
H82         H  0.35308065  0.08577299  0.21324045     0.39100
C83         C  0.41002642  0.33369172  0.31560993    -0.02400
C84         C  0.34572920  0.34973942  0.98237904    -0.02400
O85         O  0.21134841  0.43943355  0.41456809    -0.80800
O86         O  0.06707768  0.45838318  0.40456038    -0.65500
O87         O  0.14994273  0.43848054  0.44079586    -1.12100
C88         C  0.14137465  0.31899898  0.33745891     1.06100
O89         O  0.06333200  0.38944263  0.41725775    -0.78700
O90         O  0.09840225  0.32232352  0.41834381    -0.66300
Ni91       Ni  0.18047797  0.48159105  0.43381363     1.34900
C92         C  0.11597356  0.32382201  0.45055758     0.84800
O93         O  0.10578277  0.49883932  0.46371885    -0.79300
O94         O  0.15334460  0.52591394  0.45714116    -0.89500
C95         C  0.05027257  0.42444444  0.40842503     0.84400
O96         O  0.17067417  0.49654241  0.37437263    -0.67700
O97         O  0.11351600  0.33009059  0.33359515    -0.87000
C98         C  0.14468317  0.50744456  0.35992536     0.85200
C99         C  0.12621233  0.52753378  0.47246707     1.06800
H100        H  0.12207862  0.41562739  0.35300550     0.38600
O101        O  0.11777164  0.40407823  0.38148300    -1.09700
O102        O  0.13728973  0.35209516  0.45309412    -0.66300
Ni103      Ni  0.15503212  0.38632558  0.40600435     1.26300
O104        O  0.12002198  0.49441201  0.37758277    -0.66600
O105        O  0.15881340  0.33455434  0.36769730    -0.78900
C106        C  0.21525500  0.40124096  0.42991869     0.84600
O107        O  0.19338992  0.37407634  0.43174069    -0.66000
Ni108      Ni  0.08788174  0.36101606  0.37431382     1.27400
Ni109      Ni  0.10969938  0.45173484  0.42181775     1.26100
H110        H  0.14912422  0.43131232  0.47125004     0.39100
C111        C  0.09010006  0.19175703  0.06909143    -0.02400
C112        C  0.16380950  0.15770363  0.23285727    -0.02400
C113        C  0.13794865  0.17988629  0.11457955    -0.05700
C114        C  0.10604424  0.18741664  0.11641627     0.00200
C115        C  0.09253001  0.17724341  0.15863560    -0.08400
C116        C  0.11187114  0.16556189  0.19392252    -0.05700
C117        C  0.14342193  0.15814026  0.18976224     0.00200
C118        C  0.15381481  0.15598854  0.14576029    -0.08300
C119        C  0.17672290  0.12329753  0.12633985     0.62100
H120        H  0.14971745  0.18348063  0.08435221     0.12800
H121        H  0.10242674  0.16233051  0.22602205     0.12800
C122        C  0.05873235  0.17839856  0.16991003     0.62300
F123        F  0.16311893  0.09968830  0.09252116    -0.22800
F124        F  0.18646593  0.09278071  0.15523367    -0.20200
F125        F  0.20135618  0.14527714  0.10925494    -0.19800
F126        F  0.04273823  0.15010149  0.14279883    -0.19900
F127        F  0.04804661  0.22079932  0.16828410    -0.20200
F128        F  0.05265669  0.16482534  0.21182191    -0.22900
C129        C  0.17267523  0.25268579  0.32239897    -0.08100
C130        C  0.15313198  0.28450704  0.30659543     0.00200
C131        C  0.14269756  0.27983945  0.26337320    -0.08400
C132        C  0.14712208  0.23960059  0.24085232    -0.05700
C133        C  0.16362702  0.20383241  0.25818895     0.00200
C134        C  0.17961715  0.21341527  0.29857649    -0.08300
C135        C  0.20482177  0.18510489  0.31732781     0.62100
H136        H  0.18185231  0.25847164  0.35470274     0.12800
H137        H  0.13727947  0.23735144  0.20888066     0.12800
C138        C  0.12645099  0.31617325  0.23971290     0.62300
F139        F  0.21441972  0.20090546  0.35775993    -0.22800
F140        F  0.22994424  0.18547522  0.29018239    -0.20200
F141        F  0.19547692  0.14262980  0.32317455    -0.19800
F142        F  0.13152356  0.35727437  0.25866078    -0.19900
F143        F  0.09558067  0.30768326  0.23923431    -0.20200
F144        F  0.13692740  0.31767797  0.19715221    -0.22900
C145        C  0.15028007  0.07522559  0.24677671    -0.05700
C146        C  0.14927323  0.11974747  0.26251954     0.00200
C147        C  0.13608729  0.12470578  0.30569084    -0.08400
C148        C  0.13739797  0.08917962  0.33448069    -0.05700
C149        C  0.14468006  0.04646999  0.32047489     0.00200
C150        C  0.14854500  0.03873556  0.27503537    -0.08300
C151        C  0.15163083  0.48566057  0.26275014     0.62100
H152        H  0.15515645  0.06905010  0.21271346     0.12800
H153        H  0.13080695  0.09447198  0.36841397     0.12800
C154        C  0.11770150  0.16307746  0.32416560     0.62300
F155        F  0.15666532  0.48375170  0.21812302    -0.22800
F156        F  0.12532253  0.46253980  0.27153589    -0.20200
F157        F  0.17582129  0.46579872  0.28284229    -0.19800
F158        F  0.11012487  0.19414354  0.29463972    -0.19900
F159        F  0.13367991  0.18226458  0.35817750    -0.20200
F160        F  0.09042305  0.14747724  0.34040735    -0.22900
C161        C  0.08513208  0.22421055  0.50791885    -0.05700
C162        C  0.09599192  0.23401979  0.04134471     0.00200
C163        C  0.10958774  0.27551980  0.05328552    -0.08400
C164        C  0.11555106  0.30606637  0.01971423    -0.05700
C165        C  0.11018545  0.29043400  0.48492768     0.00200
C166        C  0.09348977  0.25172552  0.47457559    -0.08300
C167        C  0.08554112  0.23634447  0.42816790     0.62100
H168        H  0.06987748  0.19837783  0.49938532     0.12800
H169        H  0.12814696  0.33585657  0.02725322     0.12800
C170        C  0.11881999  0.28869271  0.09942474     0.62300
F171        F  0.07962623  0.19166183  0.42544927    -0.22800
F172        F  0.10957821  0.24396199  0.40024137    -0.20200
F173        F  0.06000033  0.25802890  0.41423258    -0.19800
F174        F  0.14652917  0.27034036  0.10875224    -0.19900
F175        F  0.09740340  0.27598601  0.12960425    -0.20200
F176        F  0.12165375  0.33387727  0.10413228    -0.22900
C177        C  0.12894457  0.10545883  0.48605195    -0.05700
C178        C  0.11624162  0.06540056  0.49698167     0.00200
C179        C  0.10249042  0.06968556  0.03685478    -0.08400
C180        C  0.09559695  0.10926763  0.05952674    -0.05700
C181        C  0.10423603  0.15089830  0.04385098     0.00200
C182        C  0.12654116  0.14321519  0.51293697    -0.08300
C183        C  0.15036785  0.17752433  0.50004465     0.62100
H184        H  0.14267302  0.10661593  0.45650838     0.12800
H185        H  0.08152286  0.10823631  0.08852533     0.12800
C186        C  0.08595485  0.52227879  0.04910910     0.62300
F187        F  0.17873202  0.15785604  0.50040948    -0.22800
F188        F  0.15287228  0.21444551  0.52610733    -0.20200
F189        F  0.14493710  0.19049142  0.45797096    -0.19800
F190        F  0.10883397  0.49188190  0.05462858    -0.19900
F191        F  0.06576128  0.50635708  0.01820177    -0.20200
F192        F  0.07033514  0.52736649  0.08826822    -0.22900
C193        C  0.29705087  0.36112315  0.43026251    -0.05700
C194        C  0.30570279  0.36248184  0.47542689     0.00200
C195        C  0.28713136  0.37443455  0.00333810    -0.08400
C196        C  0.25298333  0.38979221  0.48852537    -0.05700
C197        C  0.24598488  0.38755237  0.44424019     0.00200
C198        C  0.26790867  0.37157495  0.41477916    -0.08300
C199        C  0.26031823  0.36613411  0.36662912     0.62100
H200        H  0.31285595  0.35191970  0.40522882     0.12800
H201        H  0.24122750  0.39949306  0.01209119     0.12800
C202        C  0.29048384  0.38003280  0.05267984     0.62300
F203        F  0.28264388  0.34349149  0.34358009    -0.22800
F204        F  0.25681167  0.40707497  0.34890725    -0.20200
F205        F  0.23363467  0.34257569  0.36148557    -0.19800
F206        F  0.29011875  0.42433940  0.06388319    -0.19900
F207        F  0.31615778  0.36200448  0.06939885    -0.20200
F208        F  0.26618485  0.36012324  0.07317202    -0.22900
C209        C  0.37626420  0.30372062  0.37876315    -0.05700
C210        C  0.39602549  0.33693170  0.36391716     0.00200
C211        C  0.40025865  0.37374094  0.39400871    -0.08400
C212        C  0.38140265  0.37810218  0.43141706    -0.05700
C213        C  0.36007986  0.34619516  0.44454130     0.00200
C214        C  0.35809014  0.30709004  0.41676236    -0.08300
C215        C  0.33799967  0.26665724  0.42495026     0.62100
H216        H  0.37304707  0.27455577  0.35937416     0.12800
H217        H  0.38458170  0.40744483  0.45125439     0.12800
C218        C  0.42276106  0.41165039  0.38963343     0.62300
F219        F  0.35420767  0.23655102  0.44832793    -0.22800
F220        F  0.32938488  0.24613903  0.38604970    -0.20200
F221        F  0.31129043  0.27623504  0.44654307    -0.19800
F222        F  0.44475475  0.40550761  0.35828494    -0.19900
F223        F  0.43794563  0.41811972  0.42871152    -0.20200
F224        F  0.40692154  0.44956210  0.38083901    -0.22900
C225        C  0.24587621  0.16088222  0.17820213    -0.05700
C226        C  0.25686044  0.11918738  0.18784460     0.00200
C227        C  0.24046356  0.09413364  0.21824747    -0.08400
C228        C  0.21298867  0.11074268  0.23543440    -0.05700
C229        C  0.19856108  0.14909964  0.22044000     0.00200
C230        C  0.21759291  0.17726873  0.19418456    -0.08300
C231        C  0.21089064  0.22544356  0.18467741     0.62100
H232        H  0.26001323  0.18073830  0.15754829     0.12800
H233        H  0.20290367  0.09271359  0.26119802     0.12800
C234        C  0.25170036  0.04977137  0.23325133     0.62300
F235        F  0.21246177  0.25062949  0.22273614    -0.22800
F236        F  0.18302685  0.23067789  0.16594094    -0.20200
F237        F  0.23174867  0.24287198  0.15586325    -0.19800
F238        F  0.28093611  0.05374639  0.24915109    -0.19900
F239        F  0.25120988  0.01969454  0.19862098    -0.20200
F240        F  0.23368533  0.03300122  0.26604317    -0.22900
C241        C  0.38026390  0.24074953  0.02769765    -0.05700
C242        C  0.35669198  0.22648924  0.05466268     0.00200
C243        C  0.32808127  0.24696861  0.05185337    -0.08400
C244        C  0.32553980  0.28411646  0.02581502    -0.05700
C245        C  0.35082050  0.30467354  0.00535926     0.00200
C246        C  0.37922976  0.28016004  0.00519245    -0.08300
C247        C  0.40973725  0.29172567  0.98319962     0.62100
H248        H  0.40091597  0.22142107  0.02613213     0.12800
H249        H  0.30322466  0.29746451  0.02237773     0.12800
C250        C  0.30033849  0.23056987  0.07637655     0.62300
F251        F  0.43403327  0.27649477  0.00707955    -0.22800
F252        F  0.41456888  0.33613455  0.98007482    -0.20200
F253        F  0.41212535  0.29110787  0.46068573    -0.19800
F254        F  0.30570491  0.23243829  0.12078991    -0.19900
F255        F  0.29399898  0.18777034  0.06306870    -0.20200
F256        F  0.27474428  0.25554861  0.06882448    -0.22900
C257        C  0.37598787  0.43177603  0.07863375    -0.05700
C258        C  0.36297987  0.96991322  0.06795448     0.00200
C259        C  0.34812970  0.47152845  0.02566359    -0.08400
C260        C  0.34758675  0.43283873  0.99884525    -0.05700
C261        C  0.35763680  0.39074809  0.01254473     0.00200
C262        C  0.37330937  0.39133942  0.05501973    -0.08300
C263        C  0.38670353  0.35277825  0.08028809     0.62100
H264        H  0.38759622  0.43375675  0.10960544     0.12800
H265        H  0.33715704  0.43476699  0.96711820     0.12800
C266        C  0.33736384  0.01486521  0.01022103     0.62300
F267        F  0.36570148  0.32040966  0.08726311    -0.22800
F268        F  0.39653506  0.36493908  0.12172879    -0.20200
F269        F  0.41215457  0.33645445  0.05989795    -0.19800
F270        F  0.36021906  0.04607063  0.01068176    -0.19900
F271        F  0.31374799  0.02945696  0.03677434    -0.20200
F272        F  0.32299891  0.50893104  0.96805809    -0.22900
C273        C  0.36801839  0.43709063  0.27194699    -0.05700
C274        C  0.39036374  0.45392556  0.24493623     0.00200
C275        C  0.42027743  0.43789458  0.24730130    -0.08400
C276        C  0.42594570  0.40316131  0.27505838    -0.05700
C277        C  0.40239686  0.37916386  0.29555784     0.00200
C278        C  0.37252165  0.39929563  0.29610411    -0.08300
C279        C  0.34419202  0.38349684  0.32016779     0.62100
H280        H  0.34610669  0.45328931  0.27244610     0.12800
H281        H  0.44923285  0.39386893  0.27852911     0.12800
C282        C  0.44585107  0.45511191  0.21893333     0.62300
F283        F  0.31781407  0.39942488  0.30192323    -0.22800
F284        F  0.34461320  0.39939284  0.36254917    -0.20200
F285        F  0.34147631  0.33846825  0.31859966    -0.19800
F286        F  0.45261489  0.99873087  0.23556386    -0.19900
F287        F  0.43710669  0.45409958  0.17565399    -0.20200
F288        F  0.47206173  0.43029066  0.22187299    -0.22900
C289        C  0.36646618  0.25316304  0.23124150    -0.05700
C290        C  0.38111522  0.21449438  0.24018537     0.00200
C291        C  0.39994834  0.21272443  0.27668947    -0.08400
C292        C  0.40561810  0.25168068  0.30079771    -0.05700
C293        C  0.39596556  0.29398836  0.28728973     0.00200
C294        C  0.37642786  0.29394591  0.24851668    -0.08300
C295        C  0.36617929  0.33182966  0.21968178     0.62100
H296        H  0.35016179  0.25148351  0.20486926     0.12800
H297        H  0.41973107  0.24962046  0.32941844     0.12800
C298        C  0.41494446  0.17018209  0.28877993     0.62300
F299        F  0.35973479  0.31711654  0.17755112    -0.22800
F300        F  0.38803086  0.36290576  0.21384206    -0.20200
F301        F  0.33970785  0.35051295  0.23537907    -0.19800
F302        F  0.43619868  0.15882211  0.25723934    -0.19900
F303        F  0.39333204  0.13730975  0.29120212    -0.20200
F304        F  0.42953941  0.17373356  0.32858790    -0.22900
C305        C  0.96705969  0.38680043  0.40588901    -0.05700
C306        C  0.95096516  0.42695933  0.40657162     0.00200
C307        C  0.96862641  0.46387058  0.39148406    -0.08400
C308        C  0.00078809  0.46217540  0.39425760    -0.05700
C309        C  0.01627779  0.42358559  0.40361773     0.00200
C310        C  0.99885001  0.38402881  0.40570652    -0.08300
C311        C  0.01282210  0.33831238  0.40855861     0.62100
H312        H  0.95447383  0.35652723  0.40701575     0.12800
H313        H  0.01418583  0.49136144  0.38873075     0.12800
C314        C  0.95562941  0.50477095  0.37144799     0.62300
F315        F  0.99136768  0.30506930  0.40570126    -0.22800
F316        F  0.02727818  0.33439365  0.44820241    -0.20200
F317        F  0.03310107  0.33118342  0.37443445    -0.19800
F318        F  0.94437130  0.53319859  0.40320253    -0.19900
F319        F  0.93370690  0.49359379  0.34138204    -0.20200
F320        F  0.97768397  0.52746755  0.34875376    -0.22900
C321        C  0.90190203  0.39744905  0.34639508    -0.05700
C322        C  0.89680179  0.43104581  0.37911193     0.00200
C323        C  0.87671880  0.46541263  0.36411313    -0.08400
C324        C  0.85949507  0.45831510  0.32494728    -0.05700
C325        C  0.86109585  0.42113055  0.29607194     0.00200
C326        C  0.88774517  0.39479576  0.30427649    -0.08300
C327        C  0.90672177  0.36853718  0.27067572     0.62100
H328        H  0.91902920  0.37311065  0.35275591     0.12800
H329        H  0.84414381  0.48399283  0.31648384     0.12800
C330        C  0.87257165  0.51246650  0.38225893     0.62300
F331        F  0.93620751  0.38445736  0.27177720    -0.22800
F332        F  0.89747890  0.37138530  0.22829948    -0.20200
F333        F  0.90771165  0.32475996  0.28126393    -0.19800
F334        F  0.89032440  0.52448670  0.41668827    -0.19900
F335        F  0.84261371  0.51923373  0.39450299    -0.20200
F336        F  0.87936292  0.54145521  0.34956794    -0.22900
C337        C  0.86676813  0.46655642  0.20997986    -0.05700
C338        C  0.83929867  0.46296231  0.23381768     0.00200
C339        C  0.81937083  0.50118346  0.23239649    -0.08400
C340        C  0.81946975  0.02297754  0.17186387    -0.05700
C341        C  0.84220365  0.05208806  0.18575067     0.00200
C342        C  0.87310363  0.50011391  0.18072701    -0.08300
C343        C  0.90098508  0.49538701  0.15125939     0.62100
H344        H  0.88326928  0.44099169  0.21276331     0.12800
H345        H  0.80806730  0.03022718  0.14176218     0.12800
C346        C  0.79305402  0.51309036  0.26346894     0.62300
F347        F  0.91306438  0.45344046  0.15169634    -0.22800
F348        F  0.86875586  0.12204005  0.23544566    -0.20200
F349        F  0.89302857  0.50332777  0.10870383    -0.19800
F350        F  0.79404444  0.49302846  0.30286721    -0.19900
F351        F  0.76572436  0.50374927  0.24335529    -0.20200
F352        F  0.79360979  0.55770181  0.27378367    -0.22900
C353        C  0.83604727  0.38541477  0.17713103    -0.05700
C354        C  0.83899496  0.37648897  0.22251271     0.00200
C355        C  0.84085772  0.32966006  0.23052756    -0.08400
C356        C  0.84971026  0.29967831  0.19623593    -0.05700
C357        C  0.84794199  0.31023895  0.15248072     0.00200
C358        C  0.83799735  0.35309583  0.14302959    -0.08300
C359        C  0.82672071  0.36411691  0.09786687     0.62100
H360        H  0.82923045  0.41768530  0.16772612     0.12800
H361        H  0.85525675  0.26593549  0.20310576     0.12800
C362        C  0.83137465  0.30827154  0.27233668     0.62300
F363        F  0.82188202  0.40869380  0.09367439    -0.22800
F364        F  0.79947697  0.34266212  0.09031855    -0.20200
F365        F  0.84733743  0.35093425  0.06621334    -0.19800
F366        F  0.80327476  0.32296476  0.28610547    -0.19900
F367        F  0.85284230  0.31631339  0.30301194    -0.20200
F368        F  0.82896807  0.26299829  0.26768743    -0.22900
C369        C  0.93757937  0.48568334  0.47938359    -0.05700
C370        C  0.91143143  0.46363660  0.46219870     0.00200
C371        C  0.88356560  0.47347354  0.48651579    -0.08400
C372        C  0.87828632  0.00066900  0.51118795    -0.05700
C373        C  0.89504895  0.04993462  0.01001804     0.00200
C374        C  0.93114643  0.02021011  0.50415355    -0.08300
C375        C  0.94115128  0.09322607  0.98166452     0.62100
H376        H  0.95987361  0.47415947  0.47078583     0.12800
H377        H  0.85707909  0.00535363  0.52880040     0.12800
C378        C  0.85426306  0.44706464  0.48512142     0.62300
F379        F  0.94455198  0.10548343  0.93876722    -0.22800
F380        F  0.96922398  0.08235202  0.99776889    -0.20200
F381        F  0.95042367  0.09277482  0.50782979    -0.19800
F382        F  0.85966941  0.40348411  0.49255670    -0.19900
F383        F  0.84019670  0.45296980  0.44615224    -0.20200
F384        F  0.83357339  0.46040909  0.51710569    -0.22900
C385        C  0.93064837  0.37567394  0.48778792    -0.05700
C386        C  0.91180181  0.38199114  0.45041324     0.00200
C387        C  0.89336130  0.34440562  0.43916638    -0.08400
C388        C  0.89813201  0.30387191  0.45819856    -0.05700
C389        C  0.91160591  0.30126843  0.49856843     0.00200
C390        C  0.92992682  0.33687832  0.51282075    -0.08300
C391        C  0.91575633  0.36572559  0.06401007     0.62100
H392        H  0.94619953  0.40147282  0.49752281     0.12800
H393        H  0.88531666  0.27545069  0.44632749     0.12800
C394        C  0.86432384  0.34456801  0.41523330     0.62300
F395        F  0.94509514  0.37982989  0.07234688    -0.22800
F396        F  0.91121030  0.32748175  0.08610470    -0.20200
F397        F  0.89588759  0.39728771  0.08036630    -0.19800
F398        F  0.86916779  0.32329882  0.37590351    -0.19900
F399        F  0.85442297  0.38608666  0.41126477    -0.20200
F400        F  0.84157948  0.32273065  0.43752826    -0.22900
C401        C  0.03840354  0.22892750  0.08514398    -0.05700
C402        C  0.05378460  0.19033201  0.06934677     0.00200
C403        C  0.03374779  0.15758268  0.04981434    -0.08400
C404        C  0.00346781  0.15686651  0.06445048    -0.05700
C405        C  0.98889993  0.19342608  0.08409343     0.00200
C406        C  0.00640912  0.23187937  0.09049893    -0.08300
C407        C  0.99182978  0.27559249  0.10259018     0.62100
H408        H  0.05172018  0.25745433  0.09377211     0.12800
H409        H  0.98996543  0.12838523  0.05560201     0.12800
C410        C  0.03848698  0.12253648  0.51459417     0.62300
F411        F  0.01302188  0.30915265  0.10562676    -0.22800
F412        F  0.97704417  0.27305555  0.14234402    -0.20200
F413        F  0.97124904  0.28629624  0.07070902    -0.19800
F414        F  0.06464367  0.12671887  0.49077958    -0.19900
F415        F  0.01537517  0.13167985  0.48572606    -0.20200
F416        F  0.03544750  0.07917298  0.52608477    -0.22900
C417        C  0.72585706  0.13597815  0.48807255    -0.05700
C418        C  0.69703003  0.12867392  0.02186635     0.00200
C419        C  0.71070483  0.13120235  0.06542640    -0.08400
C420        C  0.74258818  0.13390511  0.06842996    -0.05700
C421        C  0.76067479  0.14647363  0.03399621     0.00200
C422        C  0.75736115  0.13975189  0.49578005    -0.08300
C423        C  0.77924254  0.14660611  0.45818302     0.62100
H424        H  0.71793474  0.13565582  0.45471717     0.12800
H425        H  0.75349473  0.13184972  0.10001019     0.12800
C426        C  0.69683003  0.13490371  0.11164748     0.62300
F427        F  0.76417101  0.15131029  0.41909312    -0.22800
F428        F  0.79848478  0.11085874  0.45393443    -0.20200
F429        F  0.79628584  0.18415373  0.46597762    -0.19800
F430        F  0.70160063  0.09586163  0.13245468    -0.19900
F431        F  0.66682728  0.14616875  0.11559031    -0.20200
F432        F  0.71186318  0.16791921  0.13500706    -0.22900
C433        C  0.53565417  0.07691167  0.20039261    -0.05700
C434        C  0.55284782  0.07372686  0.16091815     0.00200
C435        C  0.53588347  0.06480208  0.12077230    -0.08400
C436        C  0.50387109  0.06507730  0.12354247    -0.05700
C437        C  0.48796888  0.07163322  0.16252105     0.00200
C438        C  0.50391788  0.07669854  0.20196244    -0.08300
C439        C  0.48891673  0.08317933  0.24654949     0.62100
H440        H  0.54738873  0.08207934  0.23110849     0.12800
H441        H  0.49057095  0.06220332  0.09388111     0.12800
C442        C  0.54657369  0.05720830  0.07314477     0.62300
F443        F  0.49914728  0.05120912  0.27401874    -0.22800
F444        F  0.45764219  0.08068777  0.24510861    -0.20200
F445        F  0.49669911  0.12374210  0.26445401    -0.19800
F446        F  0.52975819  0.02335238  0.05409913    -0.19900
F447        F  0.57625788  0.04534000  0.06603267    -0.20200
F448        F  0.54093208  0.09485045  0.05039043    -0.22900
C449        C  0.64906623  0.07400184  0.07303531    -0.05700
C450        C  0.64155008  0.11172925  0.04881550     0.00200
C451        C  0.61374438  0.13365766  0.06126172    -0.08400
C452        C  0.59879054  0.12009017  0.09934026    -0.05700
C453        C  0.60709649  0.08405870  0.12512265     0.00200
C454        C  0.63412422  0.06080947  0.11160918    -0.08300
C455        C  0.64987905  0.02473172  0.13708207     0.62100
H456        H  0.66866894  0.05570128  0.06214897     0.12800
H457        H  0.57936206  0.13836954  0.10993587     0.12800
C458        C  0.60805191  0.18427733  0.53497819     0.62300
F459        F  0.63203677  0.98788612  0.13936797    -0.22800
F460        F  0.65736508  0.03971836  0.17843548    -0.20200
F461        F  0.67685732  0.01099588  0.11759706    -0.19800
F462        F  0.60214852  0.17375054  0.49190255    -0.19900
F463        F  0.62730038  0.21965326  0.53822875    -0.20200
F464        F  0.56917026  0.18004732  0.05366728    -0.22900
C465        C  0.75671789  0.40360551  0.32493571    -0.05700
C466        C  0.73642076  0.39895743  0.29147844     0.00200
C467        C  0.74657426  0.40402186  0.24831392    -0.08400
C468        C  0.77789402  0.41187436  0.24048984    -0.05700
C469        C  0.80033477  0.41212674  0.27395736     0.00200
C470        C  0.78804470  0.40637924  0.31759154    -0.08300
C471        C  0.80583370  0.39953493  0.35763371     0.62100
H472        H  0.74760107  0.40144956  0.35779473     0.12800
H473        H  0.78490176  0.41771708  0.20746237     0.12800
C474        C  0.72416295  0.40169902  0.21106540     0.62300
F475        F  0.79022050  0.37684834  0.38939954    -0.22800
F476        F  0.81370749  0.43972303  0.37552546    -0.20200
F477        F  0.82974450  0.37399293  0.34609056    -0.19800
F478        F  0.70238882  0.43402575  0.21739113    -0.19900
F479        F  0.71009521  0.36105996  0.20972595    -0.20200
F480        F  0.73816982  0.40785358  0.17114233    -0.22900
C481        C  0.67111338  0.00556151  0.44781085    -0.05700
C482        C  0.64004992  0.99965918  0.43985699     0.00200
C483        C  0.61991765  0.03343469  0.45397048    -0.08400
C484        C  0.63216780  0.07208068  0.47261942    -0.05700
C485        C  0.66371521  0.07993163  0.48092065     0.00200
C486        C  0.68336742  0.04236269  0.47118466    -0.08300
C487        C  0.71649601  0.03593426  0.48464024     0.62100
H488        H  0.68722288  0.47556643  0.42836494     0.12800
H489        H  0.61643291  0.09796120  0.48107231     0.12800
C490        C  0.58544476  0.03003432  0.44939558     0.62300
F491        F  0.72425840  0.99181206  0.48461176    -0.22800
F492        F  0.72201877  0.05083913  0.52654751    -0.20200
F493        F  0.73571363  0.05538967  0.45515250    -0.19800
F494        F  0.57653931  0.48565838  0.47300046    -0.19900
F495        F  0.57759011  0.02308089  0.40618318    -0.20200
F496        F  0.57067153  0.06786686  0.46383306    -0.22900
C497        C  0.66605507  0.24358082  0.44712480    -0.05700
C498        C  0.64844138  0.23330314  0.41046768     0.00200
C499        C  0.63839959  0.18948832  0.40478114    -0.08400
C500        C  0.64943082  0.15754652  0.43291619    -0.05700
C501        C  0.66333740  0.16696205  0.47404657     0.00200
C502        C  0.67287330  0.21277469  0.47983496    -0.08300
C503        C  0.69184653  0.23173157  0.51747973     0.62100
H504        H  0.67489586  0.27675667  0.44962547     0.12800
H505        H  0.64714394  0.12459041  0.42037090     0.12800
C506        C  0.61922328  0.17335737  0.36643368     0.62300
F507        F  0.66487204  0.26714731  0.03511112    -0.22800
F508        F  0.70781456  0.22869373  0.02391391    -0.20200
F509        F  0.66884344  0.20168714  0.06257281    -0.19800
F510        F  0.59761721  0.20362918  0.35507033    -0.19900
F511        F  0.60361793  0.13543625  0.37667502    -0.20200
F512        F  0.63786688  0.16398697  0.33121075    -0.22900
C513        C  0.58748453  0.96773462  0.23265606    -0.05700
C514        C  0.60402630  0.48487126  0.26295183     0.00200
C515        C  0.61830656  0.02004783  0.27232172    -0.08400
C516        C  0.61156471  0.05111451  0.24079535    -0.05700
C517        C  0.59627953  0.04111216  0.20069714     0.00200
C518        C  0.58452937  0.99619735  0.19723505    -0.08300
C519        C  0.56726977  0.97569805  0.15894322     0.62100
H520        H  0.58322962  0.43948499  0.21927211     0.12800
H521        H  0.61801105  0.08365184  0.25004653     0.12800
C522        C  0.63102123  0.54172799  0.31127133     0.62300
F523        F  0.53644515  0.98278588  0.16416641    -0.22800
F524        F  0.57185304  0.93067344  0.15592139    -0.20200
F525        F  0.57718887  0.99154961  0.12024735    -0.19800
F526        F  0.66330455  0.00246639  0.31030498    -0.19900
F527        F  0.61293057  0.53656434  0.34746311    -0.20200
F528        F  0.65181903  0.07362059  0.30603640    -0.22900
C529        C  0.58338992  0.19737491  0.23092907    -0.05700
C530        C  0.61399528  0.20422711  0.24125511     0.00200
C531        C  0.63578254  0.17416270  0.22333186    -0.08400
C532        C  0.62535623  0.13774194  0.19852019    -0.05700
C533        C  0.59422994  0.12781660  0.19107479     0.00200
C534        C  0.57358046  0.16383564  0.20158413    -0.08300
C535        C  0.54363903  0.17663498  0.17985941     0.62100
H536        H  0.56694460  0.22170796  0.24227820     0.12800
H537        H  0.64191764  0.11430236  0.18675384     0.12800
C538        C  0.67007996  0.17943385  0.22933113     0.62300
F539        F  0.54639805  0.21909478  0.16518073    -0.22800
F540        F  0.52040615  0.17656208  0.21025653    -0.20200
F541        F  0.53491549  0.15188061  0.14422260    -0.19800
F542        F  0.68631238  0.14577748  0.20904227    -0.19900
F543        F  0.67773224  0.17880698  0.27289485    -0.20200
F544        F  0.67961059  0.21847403  0.21170197    -0.22900
C545        C  0.49861099  0.32041090  0.28852474    -0.05700
C546        C  0.51085009  0.32432641  0.33024239     0.00200
C547        C  0.49140475  0.32129415  0.36647051    -0.08400
C548        C  0.45977061  0.31928892  0.35975781    -0.05700
C549        C  0.44610219  0.32372389  0.31796662     0.00200
C550        C  0.46688887  0.31710398  0.28103227    -0.08300
C551        C  0.45780492  0.30616469  0.23365427     0.62100
H552        H  0.51457887  0.32076271  0.26152649     0.12800
H553        H  0.44584935  0.31612293  0.38842533     0.12800
C554        C  0.50432110  0.32107071  0.41225895     0.62300
F555        F  0.48284905  0.30075982  0.20642784    -0.22800
F556        F  0.44073824  0.33883370  0.21638382    -0.20200
F557        F  0.44217143  0.26713772  0.23064679    -0.19800
F558        F  0.52163489  0.35839251  0.41998861    -0.19900
F559        F  0.52247229  0.28439294  0.41634090    -0.20200
F560        F  0.48176921  0.32006179  0.44389135    -0.22900
O561        O  0.70700704  0.33581049  0.83280288    -0.80800
O562        O  0.56664894  0.30760671  0.84148664    -0.65500
O563        O  0.64726321  0.33688469  0.80581562    -1.12100
C564        C  0.63439094  0.45861054  0.90721069     1.06100
O565        O  0.55203078  0.37713122  0.83867474    -0.78700
O566        O  0.58944598  0.44496018  0.82425366    -0.66300
Ni567      Ni  0.67917163  0.29523251  0.80530077     1.34900
C568        C  0.61083036  0.44566194  0.79631998     0.84800
O569        O  0.60520210  0.27278365  0.78135942    -0.79300
O570        O  0.65400972  0.25269518  0.77563894    -0.89500
C571        C  0.54592094  0.33637334  0.83845648     0.84400
O572        O  0.67050463  0.26952253  0.86033895    -0.67700
O573        O  0.60702617  0.44541145  0.90964842    -0.87000
C574        C  0.64527978  0.26064223  0.87848196     0.85200
C575        C  0.62607083  0.24704017  0.76657504     1.06800
H576        H  0.61655854  0.35573022  0.89413268     0.38600
O577        O  0.61290841  0.36770694  0.86580189    -1.09700
O578        O  0.63457407  0.42236424  0.79850668    -0.66300
Ni579      Ni  0.65123703  0.38753413  0.84367424     1.26300
O580        O  0.62019183  0.27765644  0.86704491    -0.66600
O581        O  0.65406698  0.43939165  0.88225699    -0.78900
C582        C  0.71143582  0.37433278  0.81915803     0.84600
O583        O  0.68996809  0.40205615  0.81934026    -0.66000
Ni584      Ni  0.58112748  0.40952509  0.87351281     1.27400
Ni585      Ni  0.60779334  0.31987262  0.82420433     1.26100
H586        H  0.64557400  0.34632518  0.77615518     0.39100
C587        C  0.59007222  0.08790636  0.66082389    -0.02400
C588        C  0.66281993  0.11949040  0.00796587    -0.02400
O589        O  0.80407811  0.18871946  0.56233463    -0.80800
O590        O  0.94060865  0.20440121  0.61773099    -0.65500
O591        O  0.86660781  0.18000353  0.55730018    -1.12100
C592        C  0.86088823  0.06156996  0.65851216     1.06100
O593        O  0.95110438  0.13364161  0.61136467    -0.78700
O594        O  0.91399518  0.06612040  0.59004879    -0.66300
Ni595      Ni  0.83803898  0.22424981  0.54526388     1.34900
C596        C  0.89713772  0.06471987  0.55647559     0.84800
O597        O  0.91508734  0.24147129  0.54908419    -0.79300
O598        O  0.86951861  0.26269865  0.52508062    -0.89500
C599        C  0.95976422  0.17352366  0.61237443     0.84400
O600        O  0.83803203  0.25358766  0.60121186    -0.67700
O601        O  0.88689404  0.07544643  0.67027898    -0.87000
C602        C  0.85904791  0.26131631  0.62857516     0.85200
C603        C  0.89844270  0.26655031  0.52672422     1.06800
H604        H  0.88205744  0.16234929  0.65228024     0.38600
O605        O  0.88940529  0.14922140  0.62508151    -1.09700
O606        O  0.87538665  0.09151364  0.55160925    -0.66300
Ni607      Ni  0.85463665  0.13094823  0.59231798     1.26300
O608        O  0.88445024  0.24065955  0.62747037    -0.66600
O609        O  0.84510674  0.08003177  0.62878835    -0.78900
C610        C  0.79918630  0.14858058  0.55182601     0.84600
O611        O  0.81897461  0.11901916  0.55814071    -0.66000
Ni612      Ni  0.91790243  0.10588046  0.63998244     1.27400
Ni613      Ni  0.90271622  0.19571834  0.58822516     1.26100
H614        H  0.87307632  0.16848927  0.52908547     0.39100
C615        C  0.92279192  0.44037895  0.91730252    -0.02400
C616        C  0.83807466  0.40641049  0.76294605    -0.02400
O617        O  0.29456871  0.06139154  0.66200003    -0.80800
O618        O  0.43876018  0.05667140  0.64833614    -0.65500
O619        O  0.35609026  0.07547712  0.68025889    -1.12100
C620        C  0.36136379  0.19920060  0.59593960     1.06100
O621        O  0.45226450  0.12676553  0.64289462    -0.78700
O622        O  0.40935788  0.16500693  0.69098922    -0.66300
Ni623      Ni  0.32959058  0.02601007  0.67320296     1.34900
C624        C  0.38357128  0.17495430  0.70648753     0.84800
O625        O  0.40207794  0.02140082  0.70528533    -0.79300
O626        O  0.36064787  0.98371823  0.68720655    -0.89500
C627        C  0.45858209  0.08670113  0.64751444     0.84400
O628        O  0.33778820  0.02099000  0.61215517    -0.67700
O629        O  0.38616966  0.20260906  0.61680036    -0.87000
C630        C  0.36363773  0.01089545  0.59657020     0.85200
C631        C  0.38561489  0.98760525  0.70782463     1.06800
H632        H  0.39164118  0.09990908  0.59286042     0.38600
O633        O  0.39086599  0.11085101  0.62285715    -1.09700
O634        O  0.35913156  0.16446799  0.68674960    -0.66300
Ni635      Ni  0.34962647  0.12148078  0.64079583     1.26300
O636        O  0.38816197  0.02150430  0.61664015    -0.66600
O637        O  0.34416265  0.16609486  0.59920084    -0.78900
C638        C  0.28961002  0.10195325  0.66904402     0.84600
O639        O  0.30934956  0.13088027  0.66099208    -0.66000
Ni640      Ni  0.41726373  0.16065360  0.63019380     1.27400
Ni641      Ni  0.39717987  0.06512946  0.66321528     1.26100
H642        H  0.35523694  0.08618136  0.71017961     0.39100
C643        C  0.41419169  0.33151887  0.80811278    -0.02400
C644        C  0.34093680  0.35366884  0.48835073    -0.02400
O645        O  0.21598365  0.44017193  0.92109762    -0.80800
O646        O  0.07518003  0.46689128  0.89083525    -0.65500
O647        O  0.15281348  0.43844010  0.93752261    -1.12100
C648        C  0.14873449  0.31958100  0.83351168     1.06100
O649        O  0.06018447  0.39753296  0.88640666    -0.78700
O650        O  0.09548456  0.33394784  0.91027383    -0.66300
Ni651      Ni  0.18419460  0.48154451  0.93856952     1.34900
C652        C  0.11380588  0.33070839  0.94155776     0.84800
O653        O  0.10830360  0.49979141  0.95698590    -0.79300
O654        O  0.15605931  0.52586325  0.96032897    -0.89500
C655        C  0.05444499  0.43801694  0.89028651     0.84400
O656        O  0.17971490  0.50087974  0.87923428    -0.67700
O657        O  0.12093272  0.32922260  0.82889119    -0.87000
C658        C  0.15509574  0.51156607  0.86062137     0.85200
C659        C  0.12775047  0.52806774  0.97014280     1.06800
H660        H  0.12949893  0.42019012  0.84516219     0.38600
O661        O  0.12330336  0.40772817  0.87244738    -1.09700
O662        O  0.13879618  0.35191804  0.94309122    -0.66300
Ni663      Ni  0.15954275  0.38813371  0.90075848     1.26300
O664        O  0.12931414  0.49756609  0.87322042    -0.66600
O665        O  0.16594824  0.33802094  0.86193100    -0.78900
C666        C  0.21878477  0.40021081  0.93204482     0.84600
O667        O  0.19640844  0.37379535  0.93014058    -0.66000
Ni668      Ni  0.09237934  0.36596103  0.85856002     1.27400
Ni669      Ni  0.11461776  0.45438138  0.91373334     1.26100
H670        H  0.14951841  0.42943009  0.96726856     0.39100
C671        C  0.09154987  0.18278004  0.57643228    -0.02400
C672        C  0.16897060  0.15433666  0.73657034    -0.02400
C673        C  0.14009393  0.17534723  0.61980995    -0.05700
C674        C  0.10799267  0.17699384  0.62258467     0.00200
C675        C  0.09582524  0.16242216  0.66431233    -0.08400
C676        C  0.11637891  0.15620337  0.69935707    -0.05700
C677        C  0.14814298  0.15296136  0.69409526     0.00200
C678        C  0.15790579  0.15294937  0.64977418    -0.08300
C679        C  0.18122351  0.12220530  0.62848331     0.62100
H680        H  0.15088388  0.18162846  0.58943186     0.12800
H681        H  0.10736415  0.15214944  0.73161312     0.12800
C682        C  0.06274854  0.15240470  0.67622853     0.62300
F683        F  0.16749620  0.09854405  0.59475264    -0.22800
F684        F  0.19251777  0.09172957  0.65633723    -0.20200
F685        F  0.20465130  0.14619008  0.61064273    -0.19800
F686        F  0.04797968  0.12872123  0.64396281    -0.19900
F687        F  0.04769015  0.19090559  0.68686147    -0.20200
F688        F  0.06071941  0.12652941  0.71263181    -0.22900
C689        C  0.17869652  0.25158293  0.82285266    -0.08100
C690        C  0.16043347  0.28364747  0.80486906     0.00200
C691        C  0.14979690  0.27725804  0.76196911    -0.08400
C692        C  0.15225504  0.23553024  0.74217195    -0.05700
C693        C  0.16862436  0.20053687  0.76083388     0.00200
C694        C  0.18495868  0.21121174  0.80073789    -0.08300
C695        C  0.21017740  0.18337556  0.82018291     0.62100
H696        H  0.18770976  0.25843046  0.85509075     0.12800
H697        H  0.14158839  0.23171865  0.71079356     0.12800
C698        C  0.13626740  0.31349169  0.73503632     0.62300
F699        F  0.22026384  0.20071087  0.85975277    -0.22800
F700        F  0.23510278  0.18239416  0.79262619    -0.20200
F701        F  0.20064466  0.14134805  0.82799038    -0.19800
F702        F  0.13891826  0.35482380  0.75447482    -0.19900
F703        F  0.10590942  0.30464993  0.72739051    -0.20200
F704        F  0.15151120  0.31473701  0.69553944    -0.22900
C705        C  0.15816861  0.07254728  0.75282658    -0.05700
C706        C  0.15526258  0.11719054  0.76723232     0.00200
C707        C  0.14113400  0.12317010  0.80973640    -0.08400
C708        C  0.14248456  0.08842818  0.83930057    -0.05700
C709        C  0.15278328  0.04639584  0.82715725     0.00200
C710        C  0.15897170  0.03747841  0.78247667    -0.08300
C711        C  0.16758884  0.49319434  0.76387821     0.62100
H712        H  0.16410592  0.06589960  0.71909738     0.12800
H713        H  0.13435321  0.09391783  0.87250937     0.12800
C714        C  0.12174924  0.16170413  0.82647540     0.62300
F715        F  0.16900522  0.49183241  0.71872540    -0.22800
F716        F  0.14577218  0.46348512  0.77670324    -0.20200
F717        F  0.19552360  0.48061250  0.77964506    -0.19800
F718        F  0.11449633  0.19178452  0.79578872    -0.19900
F719        F  0.13624872  0.18286342  0.86094864    -0.20200
F720        F  0.09430065  0.14566651  0.84166409    -0.22900
C721        C  0.08340851  0.23098755  0.99903553    -0.05700
C722        C  0.09695667  0.22656223  0.55050600     0.00200
C723        C  0.11167308  0.26752436  0.56243043    -0.08400
C724        C  0.11860964  0.29793339  0.52887756    -0.05700
C725        C  0.10548912  0.29919958  0.97638601     0.00200
C726        C  0.08734053  0.26170882  0.96679667    -0.08300
C727        C  0.07253015  0.25200931  0.92245153     0.62100
H728        H  0.06999333  0.20302033  0.99074964     0.12800
H729        H  0.13052388  0.32814933  0.53718192     0.12800
C730        C  0.12120094  0.28176377  0.60809028     0.62300
F731        F  0.05829369  0.21142473  0.92019769    -0.22800
F732        F  0.09424310  0.25191203  0.88961795    -0.20200
F733        F  0.05050400  0.28320024  0.91475480    -0.19800
F734        F  0.15198305  0.27455815  0.61244513    -0.19900
F735        F  0.10561802  0.26078342  0.64043246    -0.20200
F736        F  0.11562780  0.32622221  0.61467464    -0.22900
C737        C  0.13080373  0.11166758  0.98430654    -0.05700
C738        C  0.11930550  0.07161501  0.99763314     0.00200
C739        C  0.10138955  0.06164058  0.53761669    -0.08400
C740        C  0.09626444  0.10022062  0.56310745    -0.05700
C741        C  0.10515849  0.14252374  0.54931548     0.00200
C742        C  0.12647047  0.15083360  0.00846330    -0.08300
C743        C  0.14879692  0.18681333  0.99431816     0.62100
H744        H  0.14501467  0.11188920  0.95521060     0.12800
H745        H  0.08351343  0.09779190  0.59301241     0.12800
C746        C  0.09604404  0.52083556  0.56123717     0.62300
F747        F  0.17746209  0.16863279  0.98852379    -0.22800
F748        F  0.15290934  0.22134761  0.02329885    -0.20200
F749        F  0.13985343  0.20283144  0.95471022    -0.19800
F750        F  0.12152782  0.49457320  0.56412331    -0.19900
F751        F  0.07454655  0.49959722  0.53564805    -0.20200
F752        F  0.08383486  0.52659366  0.60274456    -0.22900
C753        C  0.30025941  0.35995607  0.92729571    -0.05700
C754        C  0.31022887  0.35998517  0.97184768     0.00200
C755        C  0.28169513  0.37754936  0.50511873    -0.08400
C756        C  0.25790567  0.38699993  0.98866525    -0.05700
C757        C  0.24927687  0.38407206  0.94492316     0.00200
C758        C  0.27043853  0.36879352  0.91393653    -0.08300
C759        C  0.26138685  0.36215509  0.86638081     0.62100
H760        H  0.31547541  0.35317227  0.90090812     0.12800
H761        H  0.23540984  0.40166042  0.51089034     0.12800
C762        C  0.28310416  0.38314299  0.55452733     0.62300
F763        F  0.28468006  0.34451093  0.84098159    -0.22800
F764        F  0.25313677  0.40191979  0.84932520    -0.20200
F765        F  0.23705906  0.33345435  0.86353386    -0.19800
F766        F  0.27850257  0.42685749  0.56622585    -0.19900
F767        F  0.30971413  0.37032691  0.57251874    -0.20200
F768        F  0.26022749  0.35844566  0.57303570    -0.22900
C769        C  0.37813867  0.30356551  0.86938142    -0.05700
C770        C  0.39818271  0.33655680  0.85504091     0.00200
C771        C  0.40132587  0.37430315  0.88437395    -0.08400
C772        C  0.38292370  0.37778275  0.92247747    -0.05700
C773        C  0.36302602  0.34449285  0.93667184     0.00200
C774        C  0.36005066  0.30662365  0.90737408    -0.08300
C775        C  0.33823151  0.26747584  0.91196714     0.62100
H776        H  0.37440192  0.27468707  0.84950418     0.12800
H777        H  0.38548856  0.40707746  0.94240527     0.12800
C778        C  0.42161090  0.41427641  0.87680307     0.62300
F779        F  0.35452463  0.23106397  0.92417702    -0.22800
F780        F  0.32471037  0.25765052  0.87218029    -0.20200
F781        F  0.31466389  0.27402661  0.94082345    -0.19800
F782        F  0.44710466  0.40509255  0.85223226    -0.19900
F783        F  0.43210355  0.43165192  0.91615024    -0.20200
F784        F  0.40489091  0.44631841  0.85682387    -0.22900
C785        C  0.24884294  0.15716888  0.67795229    -0.05700
C786        C  0.26013297  0.11595229  0.68820425     0.00200
C787        C  0.24581538  0.09249911  0.72168546    -0.08400
C788        C  0.21872818  0.10908547  0.73965566    -0.05700
C789        C  0.20347622  0.14633694  0.72369509     0.00200
C790        C  0.22165850  0.17429094  0.69624147    -0.08300
C791        C  0.21530241  0.22272532  0.68763971     0.62100
H792        H  0.26189039  0.17612105  0.65514762     0.12800
H793        H  0.20992257  0.09246458  0.76724563     0.12800
C794        C  0.25915536  0.05049718  0.73956498     0.62300
F795        F  0.21655962  0.24709781  0.72621011    -0.22800
F796        F  0.18774139  0.22842189  0.66802583    -0.20200
F797        F  0.23671865  0.24076437  0.66012171    -0.19800
F798        F  0.28916378  0.05725889  0.75112059    -0.19900
F799        F  0.25735626  0.01694967  0.70832446    -0.20200
F800        F  0.24379575  0.03676961  0.77629739    -0.22900
C801        C  0.37851054  0.25270891  0.54373122    -0.05700
C802        C  0.35397641  0.23510354  0.56631133     0.00200
C803        C  0.32491349  0.25359782  0.56167310    -0.08400
C804        C  0.32150630  0.28875579  0.53320477    -0.05700
C805        C  0.34665924  0.31081950  0.51417837     0.00200
C806        C  0.37649737  0.29131445  0.52008135    -0.08300
C807        C  0.40719109  0.30768063  0.50246700     0.62100
H808        H  0.40022129  0.23620977  0.54609427     0.12800
H809        H  0.29881771  0.30010073  0.52764053     0.12800
C810        C  0.29817520  0.23895325  0.58922407     0.62300
F811        F  0.43113472  0.29342064  0.52757562    -0.22800
F812        F  0.40947743  0.35267461  0.50311116    -0.20200
F813        F  0.41179799  0.27140060  0.94251843    -0.19800
F814        F  0.30591652  0.24173453  0.63290546    -0.19900
F815        F  0.29037744  0.19617302  0.57806411    -0.20200
F816        F  0.27285275  0.26505064  0.58358580    -0.22900
C817        C  0.38067605  0.44095805  0.56963219    -0.05700
C818        C  0.36445831  0.97739463  0.56024143     0.00200
C819        C  0.34596419  0.47783022  0.52330548    -0.08400
C820        C  0.34223927  0.43763516  0.49964330    -0.05700
C821        C  0.35174597  0.39632985  0.51601491     0.00200
C822        C  0.36962727  0.39946060  0.55620478    -0.08300
C823        C  0.37555328  0.36619919  0.59218075     0.62100
H824        H  0.39691186  0.44324925  0.59613629     0.12800
H825        H  0.32977012  0.43808927  0.46939169     0.12800
C826        C  0.33311391  0.02104118  0.50720320     0.62300
F827        F  0.35556482  0.33210355  0.59455806    -0.22800
F828        F  0.37270371  0.38720404  0.63273538    -0.20200
F829        F  0.40489051  0.35036886  0.58896748    -0.19800
F830        F  0.35665202  0.05058144  0.50190255    -0.19900
F831        F  0.31245695  0.03849183  0.53705363    -0.20200
F832        F  0.32240622  0.51556089  0.46499502    -0.22900
C833        C  0.37186697  0.43221584  0.75857869    -0.05700
C834        C  0.39515857  0.45194964  0.73523923     0.00200
C835        C  0.42499877  0.43586807  0.73881947    -0.08400
C836        C  0.43027922  0.40055278  0.76633893    -0.05700
C837        C  0.40645877  0.37566197  0.78530837     0.00200
C838        C  0.37600824  0.39354412  0.78177981    -0.08300
C839        C  0.34690027  0.37542125  0.80200033     0.62100
H840        H  0.34956703  0.44716644  0.75734442     0.12800
H841        H  0.45354603  0.39168138  0.77110210     0.12800
C842        C  0.45096579  0.45400426  0.71197428     0.62300
F843        F  0.32138609  0.38881299  0.77970976    -0.22800
F844        F  0.34414116  0.39141212  0.84432968    -0.20200
F845        F  0.34573295  0.33037528  0.80099376    -0.19800
F846        F  0.45644974  0.99496022  0.72448833    -0.19900
F847        F  0.44302517  0.45419683  0.66840128    -0.20200
F848        F  0.47722705  0.42933705  0.71533884    -0.22900
C849        C  0.36889220  0.24694033  0.73198161    -0.05700
C850        C  0.38268137  0.20778497  0.74262397     0.00200
C851        C  0.40358265  0.20800090  0.77707128    -0.08400
C852        C  0.41134504  0.24836547  0.79729055    -0.05700
C853        C  0.40216168  0.28982520  0.78105028     0.00200
C854        C  0.38269838  0.28738580  0.74275655    -0.08300
C855        C  0.37692648  0.31985521  0.70637293     0.62100
H856        H  0.35226571  0.24562502  0.70589778     0.12800
H857        H  0.42583465  0.24735652  0.82564709     0.12800
C858        C  0.41852378  0.16680571  0.79318538     0.62300
F859        F  0.38275681  0.29860344  0.66659119    -0.22800
F860        F  0.39461132  0.35644730  0.70582931    -0.20200
F861        F  0.34674024  0.33245331  0.70710808    -0.19800
F862        F  0.44945134  0.16922957  0.78548882    -0.19900
F863        F  0.40734065  0.12897818  0.77304029    -0.20200
F864        F  0.41351162  0.16380571  0.83757607    -0.22900
C865        C  0.97776335  0.43507915  0.94169609    -0.05700
C866        C  0.95798056  0.44615356  0.90706132     0.00200
C867        C  0.97245466  0.46707294  0.87037775    -0.08400
C868        C  0.00459204  0.46530637  0.86676222    -0.05700
C869        C  0.02279154  0.44939482  0.89989305     0.00200
C870        C  0.00929501  0.43573053  0.93875798    -0.08300
C871        C  0.02695457  0.41846550  0.97728936     0.62100
H872        H  0.96884101  0.42539290  0.97261288     0.12800
H873        H  0.01602995  0.47619322  0.83760753     0.12800
C874        C  0.95658444  0.49663701  0.83815416     0.62300
F875        F  0.01614128  0.43785587  0.01569862    -0.22800
F876        F  0.05777302  0.42692599  0.97499955    -0.20200
F877        F  0.02276742  0.37352735  0.97903635    -0.19800
F878        F  0.94073759  0.52885649  0.86070291    -0.19900
F879        F  0.93757101  0.47369206  0.81039754    -0.20200
F880        F  0.97715025  0.51817700  0.81183583    -0.22900
C881        C  0.90945473  0.40401426  0.84273682    -0.05700
C882        C  0.90256189  0.43792889  0.87384526     0.00200
C883        C  0.87796922  0.46614981  0.86069901    -0.08400
C884        C  0.85827704  0.45098743  0.82719692    -0.05700
C885        C  0.86354067  0.41411045  0.79891488     0.00200
C886        C  0.89292772  0.39398833  0.80391662    -0.08300
C887        C  0.91103351  0.36511039  0.77086307     0.62100
H888        H  0.93107607  0.38912288  0.84524343     0.12800
H889        H  0.83823299  0.47026966  0.82169738     0.12800
C890        C  0.87091603  0.51410348  0.87391916     0.62300
F891        F  0.94012819  0.38203241  0.76704566    -0.22800
F892        F  0.90022225  0.36218604  0.72916658    -0.20200
F893        F  0.91334143  0.32297089  0.78580090    -0.19800
F894        F  0.89216117  0.53594633  0.89842023    -0.19900
F895        F  0.84341349  0.51632922  0.89578242    -0.20200
F896        F  0.86823170  0.53810618  0.83638673    -0.22900
C897        C  0.87005430  0.45674886  0.71711338    -0.05700
C898        C  0.84114562  0.45179723  0.73701480     0.00200
C899        C  0.82069995  0.48908850  0.73248520    -0.08400
C900        C  0.82424722  0.01960387  0.70568930    -0.05700
C901        C  0.85086660  0.02062345  0.68051961     0.00200
C902        C  0.87900034  0.49193919  0.69176555    -0.08300
C903        C  0.91032654  0.48991728  0.67016227     0.62100
H904        H  0.88656305  0.43186618  0.72174295     0.12800
H905        H  0.80902002  0.04744352  0.70368909     0.12800
C906        C  0.79021544  0.49695473  0.75566504     0.62300
F907        F  0.92360060  0.44885209  0.67278002    -0.22800
F908        F  0.92105926  0.00878069  0.66183069    -0.20200
F909        F  0.90780119  0.49857344  0.62643050    -0.19800
F910        F  0.78877528  0.47994967  0.79659897    -0.19900
F911        F  0.76697636  0.48029478  0.73004793    -0.20200
F912        F  0.78491147  0.54154316  0.76211594    -0.22900
C913        C  0.84149156  0.37301596  0.68357960    -0.05700
C914        C  0.84264547  0.36514007  0.72925446     0.00200
C915        C  0.84493486  0.31904765  0.73985718    -0.08400
C916        C  0.85236498  0.28729364  0.70637760    -0.05700
C917        C  0.85352760  0.29728631  0.66222473     0.00200
C918        C  0.84690100  0.34080792  0.65049836    -0.08300
C919        C  0.84592166  0.35392497  0.60289650     0.62100
H920        H  0.83491996  0.40486243  0.67270850     0.12800
H921        H  0.85593808  0.25322867  0.71405044     0.12800
C922        C  0.83802278  0.30087965  0.78456410     0.62300
F923        F  0.84166306  0.39863445  0.59857130    -0.22800
F924        F  0.82233191  0.33260466  0.58160796    -0.20200
F925        F  0.87299145  0.34296901  0.58250091    -0.19800
F926        F  0.80834011  0.30970420  0.79630953    -0.19900
F927        F  0.85755787  0.31795856  0.81512127    -0.20200
F928        F  0.84124830  0.25567252  0.78528691    -0.22900
C929        C  0.93330237  0.51412437  0.95948111    -0.05700
C930        C  0.91236921  0.47950748  0.94977068     0.00200
C931        C  0.88364367  0.48218949  0.97329756    -0.08400
C932        C  0.87530889  0.01444436  0.00361596    -0.05700
C933        C  0.90230367  0.02913408  0.52238362     0.00200
C934        C  0.92093605  0.05300237  0.98329519    -0.08300
C935        C  0.95824531  0.04948573  0.51439326     0.62100
H936        H  0.95446837  0.51613450  0.94218463     0.12800
H937        H  0.85502512  0.01304449  0.02385062     0.12800
C938        C  0.85797806  0.44869254  0.97138476     0.62300
F939        F  0.98294187  0.03951073  0.48771351    -0.22800
F940        F  0.96703959  0.04462945  0.55716486    -0.20200
F941        F  0.92982986  0.12913110  0.00505144    -0.19800
F942        F  0.85557124  0.42897983  0.01132818    -0.19900
F943        F  0.86169742  0.41630088  0.93975920    -0.20200
F944        F  0.83080862  0.46981485  0.96387918    -0.22900
C945        C  0.91753576  0.39698619  0.98982113    -0.05700
C946        C  0.92012356  0.39506462  0.94331929     0.00200
C947        C  0.92299651  0.35066004  0.92583815    -0.08400
C948        C  0.90819322  0.31682791  0.94812971    -0.05700
C949        C  0.90358158  0.32039333  0.99315520     0.00200
C950        C  0.91172511  0.36008146  0.01500605    -0.08300
C951        C  0.94984711  0.33267958  0.55239261     0.62100
H952        H  0.92182125  0.42733515  0.00785424     0.12800
H953        H  0.90572794  0.28467820  0.93234866     0.12800
C954        C  0.94863945  0.33247477  0.89672936     0.62300
F955        F  0.96719601  0.36997990  0.56016187    -0.22800
F956        F  0.96931384  0.29751221  0.54542277    -0.20200
F957        F  0.93220758  0.32561166  0.58897110    -0.19800
F958        F  0.96955045  0.36309854  0.88373893    -0.19900
F959        F  0.93646835  0.31127465  0.86052889    -0.20200
F960        F  0.96488145  0.30162359  0.91938917    -0.22900
C961        C  0.04174754  0.21577856  0.60460538    -0.05700
C962        C  0.05560601  0.18154283  0.57889034     0.00200
C963        C  0.03467427  0.15222890  0.55581725    -0.08400
C964        C  0.00451777  0.15112343  0.57041954    -0.05700
C965        C  0.99201916  0.18161711  0.60012264     0.00200
C966        C  0.01049338  0.21614958  0.61611470    -0.08300
C967        C  0.99813587  0.25080691  0.64806203     0.62100
H968        H  0.05608192  0.24120526  0.61828756     0.12800
H969        H  0.98960574  0.12640899  0.55626745     0.12800
C970        C  0.03809756  0.12666689  0.00960396     0.62300
F971        F  0.02054567  0.27955691  0.66244743    -0.22800
F972        F  0.98577802  0.23081602  0.68404504    -0.20200
F973        F  0.97590604  0.27504566  0.62841197    -0.19800
F974        F  0.06441630  0.13063121  0.98595598    -0.19900
F975        F  0.01522727  0.13496094  0.98016265    -0.20200
F976        F  0.03521564  0.08360215  0.02209603    -0.22900
C977        C  0.71710956  0.13761733  0.98653346    -0.05700
C978        C  0.70400270  0.13280702  0.52207692     0.00200
C979        C  0.71583392  0.13617929  0.56670739    -0.08400
C980        C  0.74737052  0.13239214  0.57259623    -0.05700
C981        C  0.76802364  0.13653797  0.53878052     0.00200
C982        C  0.74799629  0.14890387  0.99218403    -0.08300
C983        C  0.76737128  0.16233038  0.95368059     0.62100
H984        H  0.70812898  0.13662661  0.95374870     0.12800
H985        H  0.75652019  0.13143921  0.60540241     0.12800
C986        C  0.70030262  0.14645852  0.61115358     0.62300
F987        F  0.75106937  0.16182964  0.91521993    -0.22800
F988        F  0.79157973  0.13367752  0.94852787    -0.20200
F989        F  0.77839419  0.20442449  0.96095230    -0.19800
F990        F  0.70104859  0.10915622  0.63572954    -0.19900
F991        F  0.67116066  0.16225565  0.61097338    -0.20200
F992        F  0.71673184  0.17889298  0.63325086    -0.22900
C993        C  0.53770133  0.08132994  0.69039335    -0.05700
C994        C  0.55538187  0.08184677  0.65139964     0.00200
C995        C  0.53907672  0.07556477  0.61024271    -0.08400
C996        C  0.50707239  0.07402564  0.61228290    -0.05700
C997        C  0.49072953  0.07612253  0.65117965     0.00200
C998        C  0.50610178  0.07881844  0.69119712    -0.08300
C999        C  0.49078828  0.08092318  0.73587094     0.62100
H1000       H  0.54883574  0.08525152  0.72168629     0.12800
H1001       H  0.49390788  0.07406114  0.58248166     0.12800
C1002       C  0.55064667  0.07686159  0.56273561     0.62300
F1003       F  0.49997157  0.04519562  0.75933189    -0.22800
F1004       F  0.45945617  0.08085710  0.73392593    -0.20200
F1005       F  0.49968118  0.11860954  0.75849061    -0.19800
F1006       F  0.53213441  0.05147727  0.53566033    -0.19900
F1007       F  0.57931818  0.06067962  0.55506732    -0.20200
F1008       F  0.54901408  0.11950021  0.54869672    -0.22900
C1009       C  0.65490179  0.08353919  0.57121306    -0.05700
C1010       C  0.64833510  0.12122595  0.54655892     0.00200
C1011       C  0.62117807  0.14478711  0.55841006    -0.08400
C1012       C  0.60451529  0.13038525  0.59472805    -0.05700
C1013       C  0.61089491  0.09246976  0.61917303     0.00200
C1014       C  0.63841235  0.06928053  0.60764255    -0.08300
C1015       C  0.65310995  0.03127900  0.63208064     0.62100
H1016       H  0.67458925  0.06494220  0.56132682     0.12800
H1017       H  0.58527778  0.14949796  0.60500669     0.12800
C1018       C  0.59739217  0.16953634  0.03602485     0.62300
F1019       F  0.63662903  0.99325321  0.62650463    -0.22800
F1020       F  0.65675781  0.04146704  0.67575232    -0.20200
F1021       F  0.68202804  0.02125927  0.61669087    -0.19800
F1022       F  0.59189047  0.15598467  0.99361511    -0.19900
F1023       F  0.61360853  0.20803815  0.03702432    -0.20200
F1024       F  0.58072081  0.19860821  0.55292367    -0.22900
C1025       C  0.76401516  0.39171241  0.83728198    -0.05700
C1026       C  0.74229005  0.38674398  0.80521048     0.00200
C1027       C  0.75109815  0.38735152  0.76116186    -0.08400
C1028       C  0.78189338  0.39466380  0.75084270    -0.05700
C1029       C  0.80523882  0.39862421  0.78270599     0.00200
C1030       C  0.79540619  0.39358799  0.82801049    -0.08300
C1031       C  0.81359438  0.38885977  0.86996777     0.62100
H1032       H  0.75603857  0.39099231  0.87086127     0.12800
H1033       H  0.78786973  0.39775853  0.71687344     0.12800
C1034       C  0.72788710  0.37984577  0.72530619     0.62300
F1035       F  0.80043382  0.35718439  0.89571496    -0.22800
F1036       F  0.81237154  0.42846753  0.89284617    -0.20200
F1037       F  0.84306240  0.37572625  0.86527341    -0.19800
F1038       F  0.70564794  0.41185043  0.72850134    -0.19900
F1039       F  0.71454293  0.33902055  0.72956866    -0.20200
F1040       F  0.74091138  0.38127059  0.68414902    -0.22900
C1041       C  0.67012346  0.00597213  0.93704101    -0.05700
C1042       C  0.63932695  0.99623010  0.92970120     0.00200
C1043       C  0.61739525  0.02372668  0.95100237    -0.08400
C1044       C  0.62739104  0.06148565  0.97389403    -0.05700
C1045       C  0.65833521  0.07353912  0.98076569     0.00200
C1046       C  0.68009546  0.04042273  0.96596760    -0.08300
C1047       C  0.71256525  0.03450703  0.98225729     0.62100
H1048       H  0.69004964  0.48291429  0.93220761     0.12800
H1049       H  0.61017293  0.08337943  0.98643828     0.12800
C1050       C  0.58322302  0.01440277  0.95070563     0.62300
F1051       F  0.72086179  0.99057868  0.98005972    -0.22800
F1052       F  0.71576685  0.04691169  0.02542973    -0.20200
F1053       F  0.73283410  0.05680789  0.95644816    -0.19800
F1054       F  0.57517888  0.49109657  0.96273812    -0.19900
F1055       F  0.57218507  0.01410789  0.90861756    -0.20200
F1056       F  0.56671413  0.04568494  0.97427892    -0.22900
C1057       C  0.66127576  0.23637399  0.95161427    -0.05700
C1058       C  0.64537952  0.22743186  0.91330818     0.00200
C1059       C  0.63263664  0.18536340  0.90699191    -0.08400
C1060       C  0.63968003  0.15233046  0.93655612    -0.05700
C1061       C  0.65377015  0.16034798  0.97793450     0.00200
C1062       C  0.66360761  0.20568927  0.98529217    -0.08300
C1063       C  0.67657549  0.22541069  0.02721008     0.62100
H1064       H  0.67107913  0.26888874  0.95601326     0.12800
H1065       H  0.63383484  0.12000916  0.92542888     0.12800
C1066       C  0.61262822  0.17452866  0.86793454     0.62300
F1067       F  0.68890485  0.27695660  0.52161677    -0.22800
F1068       F  0.72228054  0.22304237  0.51065653    -0.20200
F1069       F  0.68268496  0.21570531  0.55653515    -0.19800
F1070       F  0.58816756  0.20296553  0.86756527    -0.19900
F1071       F  0.60113565  0.13222699  0.86870362    -0.20200
F1072       F  0.62925192  0.17851151  0.83009627    -0.22900
C1073       C  0.59631574  0.96990284  0.71462167    -0.05700
C1074       C  0.60833906  0.47680801  0.76073445     0.00200
C1075       C  0.61565822  0.02487251  0.76510355    -0.08400
C1076       C  0.60817375  0.05705271  0.73521490    -0.05700
C1077       C  0.59765885  0.04767783  0.69195472     0.00200
C1078       C  0.59019567  0.00170737  0.68297872    -0.08300
C1079       C  0.57288240  0.98406389  0.64337533     0.62100
H1080       H  0.58221407  0.43246761  0.72207159     0.12800
H1081       H  0.60891958  0.08997210  0.74832892     0.12800
C1082       C  0.64242294  0.53155022  0.80097774     0.62300
F1083       F  0.54204579  0.98987932  0.64988559    -0.22800
F1084       F  0.57794243  0.93955668  0.63600260    -0.20200
F1085       F  0.58199923  0.00401960  0.60623275    -0.19800
F1086       F  0.65411032  0.01291798  0.81754475    -0.19900
F1087       F  0.62910813  0.52805738  0.84147931    -0.20200
F1088       F  0.63830958  0.08190688  0.81020491    -0.22900
C1089       C  0.58707882  0.20405809  0.72529177    -0.05700
C1090       C  0.61751395  0.20825730  0.73796592     0.00200
C1091       C  0.63859601  0.17611371  0.72220840    -0.08400
C1092       C  0.62775223  0.14103456  0.69617014    -0.05700
C1093       C  0.59671514  0.13413782  0.68549013     0.00200
C1094       C  0.57664720  0.17081501  0.69600733    -0.08300
C1095       C  0.54590159  0.18267864  0.67610863     0.62100
H1096       H  0.57120178  0.22934385  0.73618964     0.12800
H1097       H  0.64379686  0.11641854  0.68549244     0.12800
C1098       C  0.67250320  0.17708806  0.73275946     0.62300
F1099       F  0.54575162  0.22684942  0.66633574    -0.22800
F1100       F  0.52301833  0.17606348  0.70617862    -0.20200
F1101       F  0.53885328  0.16122510  0.63770172    -0.19800
F1102       F  0.68783291  0.14089102  0.71558491    -0.19900
F1103       F  0.67687464  0.17697205  0.77734511    -0.20200
F1104       F  0.68574529  0.21400976  0.71547356    -0.22900
C1105       C  0.50337815  0.31952474  0.78881652    -0.05700
C1106       C  0.51387985  0.32347916  0.83144643     0.00200
C1107       C  0.49314776  0.32001647  0.86612858    -0.08400
C1108       C  0.46184847  0.31873699  0.85694011    -0.05700
C1109       C  0.45000144  0.32275436  0.81396756     0.00200
C1110       C  0.47211761  0.31547343  0.77899437    -0.08300
C1111       C  0.46478946  0.30160134  0.73182155     0.62100
H1112       H  0.52033596  0.31963932  0.76307108     0.12800
H1113       H  0.44676517  0.31615242  0.88446385     0.12800
C1114       C  0.50432721  0.31857564  0.91277809     0.62300
F1115       F  0.49055520  0.29907072  0.70568021    -0.22800
F1116       F  0.44589127  0.33085690  0.71280418    -0.20200
F1117       F  0.45186440  0.26036696  0.73017312    -0.19800
F1118       F  0.51924824  0.35727506  0.92374261    -0.19900
F1119       F  0.52421594  0.28376929  0.91656722    -0.20200
F1120       F  0.48077960  0.31314085  0.94228290    -0.22900
O1121       O  0.70397295  0.83801524  0.33657280    -0.80800
O1122       O  0.56328782  0.80553222  0.35281695    -0.65500
O1123       O  0.64298649  0.83767801  0.31344187    -1.12100
C1124       C  0.63012703  0.95912782  0.41460634     1.06100
O1125       O  0.54832678  0.87488593  0.34770079    -0.78700
O1126       O  0.58425735  0.94423286  0.33129758    -0.66300
Ni1127     Ni  0.67588519  0.79765420  0.30888288     1.34900
C1128       C  0.60645986  0.94686576  0.30487142     0.84800
O1129       O  0.60161274  0.77053495  0.29131154    -0.79300
O1130       O  0.65070752  0.75543169  0.27870362    -0.89500
C1131       C  0.54231274  0.83414024  0.34902379     0.84400
O1132       O  0.66949657  0.76904619  0.36299934    -0.67700
O1133       O  0.60234147  0.94755162  0.41622285    -0.87000
C1134       C  0.64563407  0.76018633  0.38464729     0.85200
C1135       C  0.62261850  0.74745578  0.27270709     1.06800
H1136       H  0.61279847  0.85608425  0.40320298     0.38600
O1137       O  0.60906001  0.86746744  0.37460224    -1.09700
O1138       O  0.63047429  0.92424567  0.30798913    -0.66300
Ni1139     Ni  0.64705682  0.88779352  0.35214650     1.26300
O1140       O  0.61963138  0.77720981  0.37671613    -0.66600
O1141       O  0.64981973  0.93823097  0.39130421    -0.78900
C1142       C  0.70732791  0.87733580  0.32456474     0.84600
O1143       O  0.68539533  0.90409696  0.32793199    -0.66000
Ni1144     Ni  0.57690899  0.90928158  0.38142253     1.27400
Ni1145     Ni  0.60430633  0.81852953  0.33387825     1.26100
H1146       H  0.63997125  0.84791450  0.28423861     0.39100
C1147       C  0.58695967  0.58856394  0.16513317    -0.02400
C1148       C  0.67135817  0.61617977  0.51053372    -0.02400
O1149       O  0.79880481  0.70273142  0.06318592    -0.80800
O1150       O  0.93818243  0.72293712  0.10579358    -0.65500
O1151       O  0.86111376  0.69631730  0.05332561    -1.12100
C1152       C  0.86198688  0.57684301  0.15451014     1.06100
O1153       O  0.94858601  0.65201783  0.09965805    -0.78700
O1154       O  0.91222403  0.58401593  0.08181153    -0.66300
Ni1155     Ni  0.83122350  0.73937766  0.04217726     1.34900
C1156       C  0.89433732  0.58256791  0.04947262     0.84800
O1157       O  0.90718947  0.75957700  0.04097115    -0.79300
O1158       O  0.86084234  0.77908801  0.01791180    -0.89500
C1159       C  0.95735251  0.69175987  0.09996958     0.84400
O1160       O  0.83311838  0.77051951  0.09740051    -0.67700
O1161       O  0.88835393  0.59114623  0.16388079    -0.87000
C1162       C  0.85461980  0.77824758  0.12412912     0.85200
C1163       C  0.88960213  0.78440769  0.01967631     1.06800
H1164       H  0.88122027  0.67887546  0.14662796     0.38600
O1165       O  0.88758794  0.66602688  0.11883139    -1.09700
O1166       O  0.87163726  0.60812852  0.04667539    -0.66300
Ni1167     Ni  0.85173673  0.64665274  0.08926949     1.26300
O1168       O  0.88014836  0.75745546  0.12203700    -0.66600
O1169       O  0.84474343  0.59531310  0.12642715    -0.78900
C1170       C  0.79433888  0.66230335  0.05320575     0.84600
O1171       O  0.81489249  0.63353852  0.05833754    -0.66000
Ni1172     Ni  0.91731116  0.62339892  0.13130722     1.27400
Ni1173     Ni  0.89817834  0.71325609  0.08085557     1.26100
H1174       H  0.86676906  0.68477680  0.02473340     0.39100
C1175       C  0.91552877  0.92781982  0.41480345    -0.02400
C1176       C  0.82964346  0.92607730  0.25564596    -0.02400
O1177       O  0.29043436  0.56214415  0.16312380    -0.80800
O1178       O  0.43489805  0.55499439  0.14951995    -0.65500
O1179       O  0.35204607  0.57370353  0.18427001    -1.12100
C1180       C  0.36128079  0.69225812  0.08817524     1.06100
O1181       O  0.44506339  0.62449555  0.16404749    -0.78700
O1182       O  0.40380446  0.68402029  0.18204234    -0.66300
Ni1183     Ni  0.32431902  0.52564307  0.17865390     1.34900
C1184       C  0.37992091  0.68335549  0.20502851     0.84800
O1185       O  0.39826711  0.51955031  0.20802225    -0.79300
O1186       O  0.35433987  0.48407906  0.19775217    -0.89500
C1187       C  0.45383584  0.58535976  0.15797173     0.84400
O1188       O  0.33322548  0.51346586  0.11811129    -0.67700
O1189       O  0.38967224  0.68875402  0.09536949    -0.87000
C1190       C  0.35936993  0.50482981  0.10234602     0.85200
C1191       C  0.38066129  0.48777278  0.21488721     1.06800
H1192       H  0.38569268  0.59690231  0.09789563     0.38600
O1193       O  0.38647346  0.60862199  0.12756293    -1.09700
O1194       O  0.35657478  0.66119793  0.19457416    -0.66300
Ni1195     Ni  0.34584269  0.62165796  0.14689288     1.26300
O1196       O  0.38369780  0.51877770  0.12076003    -0.66600
O1197       O  0.34113938  0.66935251  0.10738925    -0.78900
C1198       C  0.28541156  0.60208238  0.17401838     0.84600
O1199       O  0.30552902  0.63139681  0.16853953    -0.66000
Ni1200     Ni  0.41599378  0.65460478  0.12955816     1.27400
Ni1201     Ni  0.39309641  0.56282733  0.16644060     1.26100
H1202       H  0.35190046  0.58373684  0.21450969     0.39100
C1203       C  0.41006094  0.83393404  0.31630725    -0.02400
C1204       C  0.34545568  0.85022669  0.98382865    -0.02400
O1205       O  0.20877001  0.93961157  0.40846463    -0.80800
O1206       O  0.06575444  0.96390533  0.39081555    -0.65500
O1207       O  0.14670237  0.93926260  0.43328005    -1.12100
C1208       C  0.13778058  0.81525630  0.33585016     1.06100
O1209       O  0.05700903  0.89561708  0.40476091    -0.78700
O1210       O  0.09180145  0.82878995  0.41792743    -0.66300
Ni1211     Ni  0.17853959  0.98127370  0.43067999     1.34900
C1212       C  0.11187811  0.82790803  0.44698962     0.84800
O1213       O  0.10301158  0.00215645  0.45342654    -0.79300
O1214       O  0.15199563  0.02441986  0.45709294    -0.89500
C1215       C  0.04707815  0.93188383  0.39237186     0.84400
O1216       O  0.17062174  0.00310870  0.37290177    -0.67700
O1217       O  0.10964835  0.82503668  0.33309079    -0.87000
C1218       C  0.14538963  0.01167921  0.35464906     0.85200
C1219       C  0.12392444  0.02783115  0.46776685     1.06800
H1220       H  0.11904984  0.91480909  0.34459619     0.38600
O1221       O  0.11470957  0.90456149  0.37351715    -1.09700
O1222       O  0.13509560  0.85276285  0.44601557    -0.66300
Ni1223     Ni  0.15218699  0.88689420  0.39890083     1.26300
O1224       O  0.12023657  0.99543780  0.36766835    -0.66600
O1225       O  0.15625028  0.83455766  0.36222133    -0.78900
C1226       C  0.21263179  0.90127628  0.42339914     0.84600
O1227       O  0.19057159  0.87446603  0.42495163    -0.66000
Ni1228     Ni  0.08368701  0.86188891  0.36836203     1.27400
Ni1229     Ni  0.10723025  0.95425150  0.41196727     1.26100
H1230       H  0.14445692  0.93171872  0.46359661     0.39100
C1231       C  0.09079737  0.68744244  0.07141356    -0.02400
C1232       C  0.16175003  0.65075723  0.23669818    -0.02400
C1233       C  0.13786171  0.67296424  0.11741326    -0.05700
C1234       C  0.10589895  0.67977614  0.11864881     0.00200
C1235       C  0.09175020  0.66603390  0.15950970    -0.08400
C1236       C  0.11072651  0.65564855  0.19542968    -0.05700
C1237       C  0.14246595  0.65047214  0.19260844     0.00200
C1238       C  0.15383309  0.64976886  0.14909004    -0.08300
C1239       C  0.17724505  0.61759826  0.13025477     0.62100
H1240       H  0.14980983  0.67710185  0.08735798     0.12800
H1241       H  0.10061696  0.65122465  0.22692577     0.12800
C1242       C  0.05779078  0.66124266  0.16955751     0.62300
F1243       F  0.16438079  0.59403881  0.09574841    -0.22800
F1244       F  0.18662043  0.58705404  0.15940801    -0.20200
F1245       F  0.20200920  0.64008812  0.11427873    -0.19800
F1246       F  0.04262505  0.63868551  0.13686872    -0.19900
F1247       F  0.04520814  0.70202581  0.17808342    -0.20200
F1248       F  0.05256988  0.63708828  0.20652854    -0.22900
C1249       C  0.16697812  0.74629916  0.32594486    -0.08100
C1250       C  0.14891383  0.77851052  0.30758880     0.00200
C1251       C  0.13961243  0.77286975  0.26401919    -0.08400
C1252       C  0.14386815  0.73190530  0.24303324    -0.05700
C1253       C  0.16000675  0.69664524  0.26188439     0.00200
C1254       C  0.17456937  0.70663763  0.30326652    -0.08300
C1255       C  0.19970298  0.67914172  0.32337768     0.62100
H1256       H  0.17509700  0.75270141  0.35875947     0.12800
H1257       H  0.13489999  0.72909862  0.21052622     0.12800
C1258       C  0.12602421  0.80929017  0.23738753     0.62300
F1259       F  0.20783804  0.69512066  0.36440648    -0.22800
F1260       F  0.22553820  0.68069324  0.29770735    -0.20200
F1261       F  0.19111485  0.63620464  0.32839551    -0.19800
F1262       F  0.12764397  0.85029778  0.25775059    -0.19900
F1263       F  0.09596499  0.79961812  0.22840152    -0.20200
F1264       F  0.14196062  0.81192399  0.19856300    -0.22900
C1265       C  0.14950230  0.56829556  0.25099044    -0.05700
C1266       C  0.14705553  0.61287221  0.26592692     0.00200
C1267       C  0.13216336  0.61813794  0.30801160    -0.08400
C1268       C  0.13346989  0.58332680  0.33754626    -0.05700
C1269       C  0.14284976  0.54105205  0.32492828     0.00200
C1270       C  0.14812835  0.53245446  0.27991884    -0.08300
C1271       C  0.15058720  0.99217338  0.25681059     0.62100
H1272       H  0.15549388  0.56179517  0.21731211     0.12800
H1273       H  0.12560497  0.58883087  0.37089164     0.12800
C1274       C  0.11165734  0.65552743  0.32412810     0.62300
F1275       F  0.15442399  0.99096799  0.21194769    -0.22800
F1276       F  0.12405667  0.97003699  0.26661668    -0.20200
F1277       F  0.17486601  0.97086884  0.27520513    -0.19800
F1278       F  0.10502492  0.68625066  0.29379994    -0.19900
F1279       F  0.12468878  0.67602570  0.36011682    -0.20200
F1280       F  0.08400597  0.63809018  0.33686526    -0.22900
C1281       C  0.08739021  0.72589767  0.50562934    -0.05700
C1282       C  0.09794432  0.73076285  0.04538827     0.00200
C1283       C  0.11264190  0.77134196  0.05840500    -0.08400
C1284       C  0.11800660  0.80376206  0.02620085    -0.05700
C1285       C  0.10765422  0.79471346  0.48168396     0.00200
C1286       C  0.09172888  0.75523526  0.47239196    -0.08300
C1287       C  0.08003704  0.74157455  0.42706846     0.62100
H1288       H  0.07329521  0.69864385  0.49800123     0.12800
H1289       H  0.13033462  0.83350666  0.03480901     0.12800
C1290       C  0.12490800  0.78112788  0.10371889     0.62300
F1291       F  0.07254928  0.69739888  0.42392659    -0.22800
F1292       F  0.10212859  0.74861626  0.39579059    -0.20200
F1293       F  0.05419690  0.76515352  0.41779623    -0.19800
F1294       F  0.15272295  0.76105502  0.10786876    -0.19900
F1295       F  0.10529424  0.76736922  0.13575641    -0.20200
F1296       F  0.12911208  0.82582769  0.11080674    -0.22900
C1297       C  0.13058496  0.60617795  0.48638260    -0.05700
C1298       C  0.11887218  0.56632520  0.50011718     0.00200
C1299       C  0.09939834  0.56524921  0.03420512    -0.08400
C1300       C  0.09315712  0.60464027  0.05792144    -0.05700
C1301       C  0.10370367  0.64633674  0.04464764     0.00200
C1302       C  0.12875157  0.64478051  0.51201553    -0.08300
C1303       C  0.15172310  0.67935113  0.49708654     0.62100
H1304       H  0.14318842  0.60658510  0.45580438     0.12800
H1305       H  0.07837327  0.60342041  0.08602910     0.12800
C1306       C  0.09122135  0.02636149  0.05417157     0.62300
F1307       F  0.17976213  0.65941346  0.49078235    -0.22800
F1308       F  0.15690123  0.71378395  0.52574218    -0.20200
F1309       F  0.14279392  0.69554157  0.45751202    -0.19800
F1310       F  0.11528824  0.99760999  0.05805092    -0.19900
F1311       F  0.07005425  0.00816680  0.02589709    -0.20200
F1312       F  0.07752230  0.03166535  0.09474711    -0.22900
C1313       C  0.29389785  0.85856685  0.42759151    -0.05700
C1314       C  0.30236685  0.86270258  0.47272879     0.00200
C1315       C  0.28727112  0.87580233  0.00651867    -0.08400
C1316       C  0.25033600  0.89379657  0.48295349    -0.05700
C1317       C  0.24317748  0.88757825  0.43893284     0.00200
C1318       C  0.26483492  0.86793473  0.41113759    -0.08300
C1319       C  0.25702110  0.85685068  0.36386253     0.62100
H1320       H  0.30969124  0.84744040  0.40331998     0.12800
H1321       H  0.24102915  0.89906786  0.01678462     0.12800
C1322       C  0.29085184  0.87915937  0.05605360     0.62300
F1323       F  0.28049503  0.83544466  0.34191028    -0.22800
F1324       F  0.25048540  0.89494564  0.34232495    -0.20200
F1325       F  0.23194684  0.82943800  0.36233562    -0.19800
F1326       F  0.28882577  0.92278482  0.06955373    -0.19900
F1327       F  0.31741367  0.86265471  0.07165689    -0.20200
F1328       F  0.26752996  0.85621297  0.07565971    -0.22900
C1329       C  0.37522303  0.80426648  0.37810973    -0.05700
C1330       C  0.39422338  0.83816677  0.36333333     0.00200
C1331       C  0.39679897  0.87602257  0.39261983    -0.08400
C1332       C  0.37719149  0.88011398  0.42923951    -0.05700
C1333       C  0.35704653  0.84696438  0.44294343     0.00200
C1334       C  0.35645577  0.80732105  0.41553979    -0.08300
C1335       C  0.33702685  0.76612809  0.42306939     0.62100
H1336       H  0.37360526  0.77439842  0.35933408     0.12800
H1337       H  0.37904118  0.91010806  0.44823750     0.12800
C1338       C  0.41828309  0.91514096  0.38754979     0.62300
F1339       F  0.35331324  0.73683833  0.44732746    -0.22800
F1340       F  0.32963646  0.74508999  0.38388176    -0.20200
F1341       F  0.30966082  0.77473988  0.44321305    -0.19800
F1342       F  0.44319797  0.90665214  0.36163773    -0.19900
F1343       F  0.42967412  0.92816409  0.42791315    -0.20200
F1344       F  0.40237494  0.94996520  0.37090920    -0.22900
C1345       C  0.24394912  0.65663171  0.18395788    -0.05700
C1346       C  0.25527843  0.61509994  0.19293028     0.00200
C1347       C  0.23979513  0.58993434  0.22419722    -0.08400
C1348       C  0.21179055  0.60527693  0.24101172    -0.05700
C1349       C  0.19689729  0.64332052  0.22597603     0.00200
C1350       C  0.21595795  0.67252706  0.20100447    -0.08300
C1351       C  0.20949279  0.72112443  0.19377887     0.62100
H1352       H  0.25756214  0.67677224  0.16285853     0.12800
H1353       H  0.20175217  0.58667852  0.26643834     0.12800
C1354       C  0.25274239  0.54714482  0.24063750     0.62300
F1355       F  0.20871673  0.74409217  0.23320624    -0.22800
F1356       F  0.18277257  0.72657873  0.17193880    -0.20200
F1357       F  0.23186076  0.74084439  0.16905772    -0.19800
F1358       F  0.28238039  0.55346816  0.25418227    -0.19900
F1359       F  0.25198127  0.51528318  0.20763551    -0.20200
F1360       F  0.23635770  0.53147673  0.27566471    -0.22900
C1361       C  0.37620616  0.73689012  0.02643081    -0.05700
C1362       C  0.35308412  0.72534544  0.05535421     0.00200
C1363       C  0.32527896  0.74781502  0.05344402    -0.08400
C1364       C  0.32371739  0.78509075  0.02731446    -0.05700
C1365       C  0.34946788  0.80422209  0.00634021     0.00200
C1366       C  0.37662448  0.77660178  0.00433163    -0.08300
C1367       C  0.40726440  0.78365485  0.98067980     0.62100
H1368       H  0.39571271  0.71526032  0.02344727     0.12800
H1369       H  0.30172121  0.79930098  0.02400320     0.12800
C1370       C  0.29737234  0.73287364  0.07849092     0.62300
F1371       F  0.43105955  0.76840722  0.00557492    -0.22800
F1372       F  0.41438203  0.82661245  0.97324219    -0.20200
F1373       F  0.41027955  0.79308510  0.46247526    -0.19800
F1374       F  0.30288016  0.73566184  0.12284052    -0.19900
F1375       F  0.29042885  0.68994228  0.06634922    -0.20200
F1376       F  0.27211970  0.75832600  0.07030423    -0.22900
C1377       C  0.37619751  0.93084729  0.08012670    -0.05700
C1378       C  0.36183870  0.47019183  0.06690218     0.00200
C1379       C  0.34977333  0.97190701  0.02646058    -0.08400
C1380       C  0.34858323  0.93328963  0.99977620    -0.05700
C1381       C  0.35811038  0.89094274  0.01345032     0.00200
C1382       C  0.37426311  0.89109181  0.05520224    -0.08300
C1383       C  0.38949980  0.85230435  0.07721047     0.62100
H1384       H  0.38671506  0.93174544  0.11193717     0.12800
H1385       H  0.33824301  0.93558851  0.96803169     0.12800
C1386       C  0.33483044  0.51397885  0.00963216     0.62300
F1387       F  0.36900095  0.81974187  0.08631392    -0.22800
F1388       F  0.40263997  0.86377973  0.11686390    -0.20200
F1389       F  0.41307890  0.83670669  0.05214481    -0.19800
F1390       F  0.35734045  0.54565576  0.00868011    -0.19900
F1391       F  0.31170888  0.52833367  0.03720091    -0.20200
F1392       F  0.32649225  0.01052316  0.96804970    -0.22900
C1393       C  0.36720506  0.93421876  0.26832022    -0.05700
C1394       C  0.39030728  0.95328376  0.24419259     0.00200
C1395       C  0.42046851  0.93842437  0.24884503    -0.08400
C1396       C  0.42590121  0.90395226  0.27712028    -0.05700
C1397       C  0.40217233  0.87855913  0.29514086     0.00200
C1398       C  0.37162738  0.89620501  0.29212962    -0.08300
C1399       C  0.34260091  0.87812811  0.31289814     0.62100
H1400       H  0.34482773  0.94890505  0.26702590     0.12800
H1401       H  0.44918417  0.89533581  0.28252670     0.12800
C1402       C  0.44665619  0.95623152  0.22212148     0.62300
F1403       F  0.31683807  0.89136047  0.29106373    -0.22800
F1404       F  0.33998498  0.89445871  0.35507399    -0.20200
F1405       F  0.34154020  0.83302572  0.31209402    -0.19800
F1406       F  0.45279958  0.49760386  0.23195512    -0.19900
F1407       F  0.43931747  0.95501138  0.17829790    -0.20200
F1408       F  0.47309005  0.93225786  0.22686619    -0.22900
C1409       C  0.36491832  0.75385786  0.23414851    -0.05700
C1410       C  0.37866174  0.71428924  0.24271309     0.00200
C1411       C  0.39896196  0.71237304  0.27775490    -0.08400
C1412       C  0.40646293  0.75141297  0.30070351    -0.05700
C1413       C  0.39737984  0.79383623  0.28714160     0.00200
C1414       C  0.37804160  0.79384688  0.24835147    -0.08300
C1415       C  0.37203860  0.82951898  0.21492438     0.62100
H1416       H  0.34829477  0.75357038  0.20808332     0.12800
H1417       H  0.42091029  0.74864092  0.32895841     0.12800
C1418       C  0.41320001  0.67010213  0.29223149     0.62300
F1419       F  0.37179198  0.81095803  0.17313819    -0.22800
F1420       F  0.39368602  0.86132191  0.21275168    -0.20200
F1421       F  0.34381796  0.84817839  0.22203636    -0.19800
F1422       F  0.44437678  0.67298555  0.28756211    -0.19900
F1423       F  0.40296616  0.63374976  0.26857594    -0.20200
F1424       F  0.40623112  0.66415285  0.33572565    -0.22900
C1425       C  0.96641664  0.89416767  0.38755759    -0.05700
C1426       C  0.94958442  0.93290389  0.39706474     0.00200
C1427       C  0.96492243  0.97330269  0.38539257    -0.08400
C1428       C  0.99731083  0.97356405  0.38463797    -0.05700
C1429       C  0.01377552  0.93427701  0.38253231     0.00200
C1430       C  0.99703880  0.89514350  0.37518040    -0.08300
C1431       C  0.00999340  0.85478559  0.35169931     0.62100
H1432       H  0.95520255  0.86257012  0.38629469     0.12800
H1433       H  0.00973193  0.00428433  0.38511318     0.12800
C1434       C  0.94904738  0.01544009  0.37220496     0.62300
F1435       F  0.98943990  0.83927048  0.32091133    -0.22800
F1436       F  0.01514992  0.82233659  0.38126724    -0.20200
F1437       F  0.03664574  0.86405384  0.32961828    -0.19800
F1438       F  0.93678322  0.03811058  0.40744875    -0.19900
F1439       F  0.92667555  0.00633039  0.34202308    -0.20200
F1440       F  0.96933640  0.04365413  0.35256661    -0.22900
C1441       C  0.90390818  0.91840992  0.33089357    -0.05700
C1442       C  0.89424967  0.93517877  0.37268142     0.00200
C1443       C  0.86572008  0.95768931  0.37036922    -0.08400
C1444       C  0.84483003  0.94446158  0.33742914    -0.05700
C1445       C  0.85357064  0.92687532  0.29578068     0.00200
C1446       C  0.88593003  0.91871829  0.29222664    -0.08300
C1447       C  0.90339747  0.91127915  0.24938571     0.62100
H1448       H  0.92641734  0.90494208  0.32747169     0.12800
H1449       H  0.82196948  0.95280261  0.34434773     0.12800
C1450       C  0.85739898  0.00124824  0.39311927     0.62300
F1451       F  0.93388205  0.92154228  0.25436455    -0.22800
F1452       F  0.89287654  0.93780831  0.21713444    -0.20200
F1453       F  0.90177886  0.86778991  0.23580097    -0.19800
F1454       F  0.88125187  0.02156540  0.41387163    -0.19900
F1455       F  0.83357531  0.99573244  0.42201249    -0.20200
F1456       F  0.84801728  0.03039151  0.36223558    -0.22900
C1457       C  0.85290548  0.00395619  0.24506730    -0.05700
C1458       C  0.83101993  0.97193546  0.23123634     0.00200
C1459       C  0.81133683  0.98533813  0.19586625    -0.08400
C1460       C  0.82594527  0.53495642  0.20235143    -0.05700
C1461       C  0.85273522  0.53594099  0.17767731     0.00200
C1462       C  0.85588536  0.04508438  0.22630180    -0.08300
C1463       C  0.87297889  0.08067464  0.25193112     0.62100
H1464       H  0.86677165  0.99943811  0.27336659     0.12800
H1465       H  0.81092723  0.56301717  0.20037388     0.12800
C1466       C  0.78158926  0.96268992  0.18234101     0.62300
F1467       F  0.86240880  0.08241448  0.29451926    -0.22800
F1468       F  0.92345860  0.52437046  0.16463141    -0.20200
F1469       F  0.90365235  0.07100148  0.25205971    -0.19800
F1470       F  0.76010007  0.96825438  0.21491616    -0.19900
F1471       F  0.78539859  0.91869859  0.17287566    -0.20200
F1472       F  0.76933879  0.98056874  0.14533849    -0.22900
C1473       C  0.84350749  0.89297069  0.17747776    -0.05700
C1474       C  0.83931698  0.88572517  0.22279411     0.00200
C1475       C  0.84178460  0.83979389  0.23432805    -0.08400
C1476       C  0.84998541  0.80706848  0.20213174    -0.05700
C1477       C  0.84977360  0.81520577  0.15752604     0.00200
C1478       C  0.84302765  0.85864754  0.14540743    -0.08300
C1479       C  0.83082102  0.86844947  0.10040539     0.62100
H1480       H  0.84409363  0.92571602  0.16563473     0.12800
H1481       H  0.85353076  0.77345917  0.21172737     0.12800
C1482       C  0.83458343  0.82079254  0.27831458     0.62300
F1483       F  0.82711017  0.91305182  0.09462418    -0.22800
F1484       F  0.80268361  0.84870235  0.09561120    -0.20200
F1485       F  0.84980299  0.85241590  0.06797028    -0.19800
F1486       F  0.81189344  0.78956583  0.27330547    -0.19900
F1487       F  0.82463333  0.85091527  0.30923931    -0.20200
F1488       F  0.86027399  0.80033593  0.29327809    -0.22900
C1489       C  0.93449743  0.98474881  0.47408219    -0.05700
C1490       C  0.90966288  0.96072422  0.45576842     0.00200
C1491       C  0.88174207  0.96476019  0.48072131    -0.08400
C1492       C  0.88259801  0.51059898  0.51524627    -0.05700
C1493       C  0.90036901  0.54915167  0.01385445     0.00200
C1494       C  0.93647930  0.52158979  0.50939145    -0.08300
C1495       C  0.95325093  0.58002517  0.00138958     0.62100
H1496       H  0.95740539  0.97608674  0.46525606     0.12800
H1497       H  0.86140664  0.52059518  0.53065019     0.12800
C1498       C  0.85729167  0.92920379  0.48202982     0.62300
F1499       F  0.97685120  0.57702735  0.97143397    -0.22800
F1500       F  0.96485516  0.57165478  0.04211359    -0.20200
F1501       F  0.96137461  0.58979213  0.50905578    -0.19800
F1502       F  0.86766793  0.89492309  0.50626058    -0.19900
F1503       F  0.84952708  0.91332575  0.44130880    -0.20200
F1504       F  0.83081715  0.94456588  0.50176118    -0.22900
C1505       C  0.93070022  0.87428420  0.47508243    -0.05700
C1506       C  0.91265858  0.88051558  0.43701967     0.00200
C1507       C  0.89385829  0.84331698  0.42485217    -0.08400
C1508       C  0.88834683  0.81025118  0.45525371    -0.05700
C1509       C  0.90388036  0.80732540  0.49442523     0.00200
C1510       C  0.92686908  0.83857787  0.50355222    -0.08300
C1511       C  0.91501592  0.86954472  0.06590619     0.62100
H1512       H  0.94763946  0.89874632  0.48331033     0.12800
H1513       H  0.87173669  0.78482315  0.44819927     0.12800
C1514       C  0.88109952  0.83390292  0.38007482     0.62300
F1515       F  0.89689912  0.90398637  0.08081066    -0.22800
F1516       F  0.94499053  0.88059945  0.07387328    -0.20200
F1517       F  0.90824769  0.83304872  0.08966138    -0.19800
F1518       F  0.90417860  0.83453472  0.34949924    -0.19900
F1519       F  0.85872978  0.86350196  0.37175302    -0.20200
F1520       F  0.86796641  0.79259767  0.37621666    -0.22900
C1521       C  0.04160687  0.72589481  0.09625103    -0.05700
C1522       C  0.05468210  0.68961235  0.07220025     0.00200
C1523       C  0.03309118  0.66287547  0.04750251    -0.08400
C1524       C  0.00225215  0.66637188  0.05900202    -0.05700
C1525       C  0.99014921  0.69815764  0.08784687     0.00200
C1526       C  0.00994653  0.73049401  0.10479695    -0.08300
C1527       C  0.99804455  0.76809048  0.13344171     0.62100
H1528       H  0.05666221  0.74992705  0.11068234     0.12800
H1529       H  0.98652994  0.64421568  0.04318243     0.12800
C1530       C  0.04177063  0.62477159  0.51549719     0.62300
F1531       F  0.02117484  0.79555496  0.14791664    -0.22800
F1532       F  0.98336279  0.75170035  0.16954960    -0.20200
F1533       F  0.97783228  0.79278405  0.11004729    -0.19800
F1534       F  0.06782313  0.62715294  0.49121828    -0.19900
F1535       F  0.01880862  0.63102979  0.48554991    -0.20200
F1536       F  0.03885337  0.58266391  0.53068398    -0.22900
C1537       C  0.72751000  0.62657809  0.49364297    -0.05700
C1538       C  0.69962193  0.63499530  0.02446054     0.00200
C1539       C  0.71129251  0.64067114  0.06905891    -0.08400
C1540       C  0.74301450  0.64214784  0.07495676    -0.05700
C1541       C  0.76323678  0.64859675  0.04105249     0.00200
C1542       C  0.75891884  0.63233551  0.50178805    -0.08300
C1543       C  0.78073825  0.64195707  0.46487112     0.62100
H1544       H  0.71970521  0.62727735  0.46027617     0.12800
H1545       H  0.75233796  0.64286142  0.10770753     0.12800
C1546       C  0.69533545  0.64829846  0.11359931     0.62300
F1547       F  0.76623695  0.64245765  0.42498929    -0.22800
F1548       F  0.80308724  0.61005304  0.46271567    -0.20200
F1549       F  0.79413758  0.68256821  0.47226289    -0.19800
F1550       F  0.69907338  0.61116664  0.13783703    -0.19900
F1551       F  0.66519918  0.65940051  0.11395797    -0.20200
F1552       F  0.70934742  0.68307839  0.13571923    -0.22900
C1553       C  0.53480467  0.58464276  0.19718756    -0.05700
C1554       C  0.55185337  0.58196826  0.15751364     0.00200
C1555       C  0.53448962  0.57277893  0.11770970    -0.08400
C1556       C  0.50239559  0.57162070  0.12120119    -0.05700
C1557       C  0.48667761  0.57681524  0.16057929     0.00200
C1558       C  0.50308477  0.58250835  0.19953712    -0.08300
C1559       C  0.48863809  0.58725041  0.24465970     0.62100
H1560       H  0.54661640  0.59039946  0.22772866     0.12800
H1561       H  0.48885670  0.56779732  0.09183952     0.12800
C1562       C  0.54444696  0.56382809  0.06994279     0.62300
F1563       F  0.49944295  0.55435266  0.27058140    -0.22800
F1564       F  0.45732217  0.58457842  0.24423998    -0.20200
F1565       F  0.49663385  0.62728338  0.26359362    -0.19800
F1566       F  0.53026212  0.52579961  0.05466899    -0.19900
F1567       F  0.57465877  0.55763223  0.06103797    -0.20200
F1568       F  0.53465251  0.59818905  0.04507929    -0.22900
C1569       C  0.65130477  0.58231587  0.07410202    -0.05700
C1570       C  0.64379487  0.61870133  0.04814747     0.00200
C1571       C  0.61536667  0.64009137  0.05826755    -0.08400
C1572       C  0.59937635  0.62703448  0.09581299    -0.05700
C1573       C  0.60718999  0.59147171  0.12256012     0.00200
C1574       C  0.63524668  0.56907925  0.11160355    -0.08300
C1575       C  0.65102341  0.53340319  0.13807099     0.62100
H1576       H  0.67161189  0.56462500  0.06490297     0.12800
H1577       H  0.57931929  0.64485979  0.10481703     0.12800
C1578       C  0.60966220  0.67554454  0.53971981     0.62300
F1579       F  0.63532422  0.49444399  0.13548529    -0.22800
F1580       F  0.65484965  0.54638643  0.18103711    -0.20200
F1581       F  0.67997891  0.52378560  0.12257618    -0.19800
F1582       F  0.60401213  0.66706465  0.49625695    -0.19900
F1583       F  0.62950509  0.70999389  0.54520782    -0.20200
F1584       F  0.57075731  0.68512195  0.04660861    -0.22900
C1585       C  0.74911980  0.93184710  0.31834597    -0.05700
C1586       C  0.73662339  0.89159904  0.30534500     0.00200
C1587       C  0.74993803  0.86870410  0.26977194    -0.08400
C1588       C  0.77861362  0.88201627  0.25480100    -0.05700
C1589       C  0.79498446  0.91921513  0.27193017     0.00200
C1590       C  0.77655397  0.94802955  0.30048167    -0.08300
C1591       C  0.78087155  0.99694770  0.31183536     0.62100
H1592       H  0.73637893  0.95193828  0.34184645     0.12800
H1593       H  0.78746844  0.86267553  0.22796910     0.12800
C1594       C  0.73288639  0.83210011  0.24543116     0.62300
F1595       F  0.75813990  0.02053675  0.29218920    -0.22800
F1596       F  0.80794416  0.01434320  0.29935703    -0.20200
F1597       F  0.77838414  0.00407481  0.35655843    -0.19800
F1598       F  0.70375944  0.84597790  0.23607817    -0.19900
F1599       F  0.73134338  0.79527144  0.27062322    -0.20200
F1600       F  0.74680851  0.82030036  0.20619927    -0.22900
C1601       C  0.67202927  0.50019777  0.44238167    -0.05700
C1602       C  0.64094378  0.49480216  0.43404851     0.00200
C1603       C  0.62058534  0.52608009  0.45290984    -0.08400
C1604       C  0.63270372  0.56287196  0.47539815    -0.05700
C1605       C  0.66434837  0.57054969  0.48352612     0.00200
C1606       C  0.68400904  0.53423927  0.47004892    -0.08300
C1607       C  0.71664816  0.52608483  0.48444204     0.62100
H1608       H  0.68615411  0.97952939  0.43638731     0.12800
H1609       H  0.61680431  0.58769489  0.48635890     0.12800
C1610       C  0.58598646  0.52173375  0.45008405     0.62300
F1611       F  0.72369497  0.48171625  0.48174479    -0.22800
F1612       F  0.72132174  0.53820552  0.52741974    -0.20200
F1613       F  0.73675592  0.54703109  0.45727757    -0.19800
F1614       F  0.57468651  0.99588837  0.47403077    -0.19900
F1615       F  0.57662214  0.51711887  0.40734443    -0.20200
F1616       F  0.57108647  0.55812797  0.46767913    -0.22900
C1617       C  0.66773028  0.73491626  0.45478198    -0.05700
C1618       C  0.64889434  0.72639297  0.41902367     0.00200
C1619       C  0.63849916  0.68314381  0.41223286    -0.08400
C1620       C  0.64983919  0.64969232  0.43845010    -0.05700
C1621       C  0.66466001  0.65741584  0.47939055     0.00200
C1622       C  0.67445533  0.70292783  0.48642603    -0.08300
C1623       C  0.69300908  0.72074883  0.52486899     0.62100
H1624       H  0.67710480  0.76775056  0.45802616     0.12800
H1625       H  0.64657477  0.61731579  0.42504486     0.12800
C1626       C  0.61571847  0.67176867  0.37671922     0.62300
F1627       F  0.67316660  0.77604766  0.02636405    -0.22800
F1628       F  0.71177002  0.72874543  0.01992737    -0.20200
F1629       F  0.67002516  0.71327256  0.05939411    -0.19800
F1630       F  0.59036090  0.69824820  0.38179299    -0.19900
F1631       F  0.60601269  0.62858234  0.37838110    -0.20200
F1632       F  0.62861955  0.67811241  0.33635009    -0.22900
C1633       C  0.59088399  0.47318682  0.22339639    -0.05700
C1634       C  0.60451241  0.97859391  0.26928644     0.00200
C1635       C  0.61349412  0.52836824  0.27053733    -0.08400
C1636       C  0.60639771  0.55987425  0.23973588    -0.05700
C1637       C  0.59491790  0.54941764  0.19718830     0.00200
C1638       C  0.58671800  0.50343249  0.18991101    -0.08300
C1639       C  0.57102966  0.48387422  0.14987954     0.62100
H1640       H  0.57666096  0.93571886  0.23169468     0.12800
H1641       H  0.60897704  0.59308071  0.25129527     0.12800
C1642       C  0.63949606  0.03204520  0.30974406     0.62300
F1643       F  0.53996048  0.48891278  0.15406403    -0.22800
F1644       F  0.57694644  0.43931858  0.14462022    -0.20200
F1645       F  0.58133839  0.50251193  0.11273030    -0.19800
F1646       F  0.65658437  0.51571352  0.31456638    -0.19900
F1647       F  0.62380189  0.03085110  0.34872447    -0.20200
F1648       F  0.64048699  0.58508669  0.31080164    -0.22900
C1649       C  0.58381916  0.70467421  0.22993977    -0.05700
C1650       C  0.61423288  0.70930477  0.24266956     0.00200
C1651       C  0.63568074  0.67871789  0.22469181    -0.08400
C1652       C  0.62511233  0.64387537  0.19773396    -0.05700
C1653       C  0.59400826  0.63577197  0.18818291     0.00200
C1654       C  0.57382152  0.67203519  0.19945888    -0.08300
C1655       C  0.54376821  0.68480772  0.17832154     0.62100
H1656       H  0.56775475  0.72958283  0.24116994     0.12800
H1657       H  0.64145963  0.62030478  0.18588436     0.12800
C1658       C  0.66973582  0.68122006  0.23390739     0.62300
F1659       F  0.54578378  0.72798973  0.16550374    -0.22800
F1660       F  0.52051332  0.68240924  0.20857571    -0.20200
F1661       F  0.53577718  0.66109823  0.14158669    -0.19800
F1662       F  0.68559068  0.64622056  0.21535206    -0.19900
F1663       F  0.67499128  0.68040075  0.27826972    -0.20200
F1664       F  0.68168103  0.71921145  0.21693100    -0.22900
C1665       C  0.49986625  0.81779084  0.29891644    -0.05700
C1666       C  0.51006260  0.82153938  0.34179762     0.00200
C1667       C  0.48860029  0.82175124  0.37587122    -0.08400
C1668       C  0.45745425  0.82031678  0.36561923    -0.05700
C1669       C  0.44599537  0.82455506  0.32235248     0.00200
C1670       C  0.46857448  0.81736065  0.28781123    -0.08300
C1671       C  0.46187491  0.80785851  0.23936387     0.62100
H1672       H  0.51725898  0.81669783  0.27378121     0.12800
H1673       H  0.44217808  0.81840959  0.39291609     0.12800
C1674       C  0.49865791  0.82603042  0.42312191     0.62300
F1675       F  0.48818433  0.80221124  0.21478496    -0.22800
F1676       F  0.44655992  0.84163397  0.22103610    -0.20200
F1677       F  0.44561261  0.76954546  0.23378462    -0.19800
F1678       F  0.51283256  0.86613785  0.43015788    -0.19900
F1679       F  0.51880082  0.79272848  0.43209529    -0.20200
F1680       F  0.47448016  0.82361754  0.45209296    -0.22900
O1681       O  0.70460570  0.83423138  0.82969127    -0.80800
O1682       O  0.56572181  0.80582723  0.83602123    -0.65500
O1683       O  0.64599569  0.83555886  0.79942611    -1.12100
C1684       C  0.63098855  0.95729464  0.90045588     1.06100
O1685       O  0.55195699  0.87464104  0.82556327    -0.78700
O1686       O  0.58823738  0.94506712  0.81489305    -0.66300
Ni1687     Ni  0.67831323  0.79437909  0.79867287     1.34900
C1688       C  0.61049570  0.94706193  0.78860538     0.84800
O1689       O  0.60511377  0.76780096  0.77868675    -0.79300
O1690       O  0.65429390  0.75234891  0.76655160    -0.89500
C1691       C  0.54523167  0.83444681  0.83004648     0.84400
O1692       O  0.66925953  0.76567126  0.85189052    -0.67700
O1693       O  0.60334087  0.94492396  0.90021099    -0.87000
C1694       C  0.64482750  0.76006128  0.87326374     0.85200
C1695       C  0.62619731  0.74382070  0.76156873     1.06800
H1696       H  0.61407664  0.85700689  0.88670318     0.38600
O1697       O  0.61096031  0.86757999  0.85770597    -1.09700
O1698       O  0.63397750  0.92295949  0.79113943    -0.66300
Ni1699     Ni  0.64945107  0.88690415  0.83699261     1.26300
O1700       O  0.61987456  0.77889097  0.86408711    -0.66600
O1701       O  0.65136590  0.93831849  0.87634019    -0.78900
C1702       C  0.71004697  0.87244787  0.81620665     0.84600
O1703       O  0.68895467  0.90072895  0.81478941    -0.66000
Ni1704     Ni  0.57877701  0.90853613  0.86269269     1.27400
Ni1705     Ni  0.60683572  0.81774650  0.81850476     1.26100
H1706       H  0.64394899  0.84490548  0.76973777     0.39100
C1707       C  0.58920750  0.58001515  0.66335932    -0.02400
C1708       C  0.66611795  0.62512110  0.00825119    -0.02400
O1709       O  0.80361420  0.68573553  0.56659751    -0.80800
O1710       O  0.94308615  0.71455189  0.60983349    -0.65500
O1711       O  0.86681572  0.68281084  0.55771630    -1.12100
C1712       C  0.86823585  0.56756730  0.66279743     1.06100
O1713       O  0.95562553  0.64426558  0.61179088    -0.78700
O1714       O  0.92100153  0.57522311  0.59195675    -0.66300
Ni1715     Ni  0.83580071  0.72471428  0.54892526     1.34900
C1716       C  0.90350076  0.57190770  0.55926470     0.84800
O1717       O  0.91221302  0.74646729  0.54238221    -0.79300
O1718       O  0.86456693  0.76725657  0.52771406    -0.89500
C1719       C  0.96299905  0.68427712  0.60820822     0.84400
O1720       O  0.83702163  0.75021815  0.60634696    -0.67700
O1721       O  0.89424414  0.58270488  0.67280093    -0.87000
C1722       C  0.85951457  0.76193491  0.62960048     0.85200
C1723       C  0.89335746  0.77187319  0.52409015     1.06800
H1724       H  0.88655225  0.67052054  0.65185386     0.38600
O1725       O  0.89356654  0.65644710  0.62500590    -1.09700
O1726       O  0.88026963  0.59626659  0.55512899    -0.66300
Ni1727     Ni  0.85831262  0.63453445  0.59523810     1.26300
O1728       O  0.88629614  0.74654240  0.62372225    -0.66600
O1729       O  0.85150014  0.58468775  0.63356258    -0.78900
C1730       C  0.80051824  0.64485580  0.55774631     0.84600
O1731       O  0.82212476  0.61790212  0.56366136    -0.66000
Ni1732     Ni  0.92360234  0.61545154  0.64128099     1.27400
Ni1733     Ni  0.90391314  0.70169259  0.58451168     1.26100
H1734       H  0.87200661  0.67106914  0.52903455     0.39100
C1735       C  0.92170492  0.94097362  0.91763531    -0.02400
C1736       C  0.83739724  0.90347584  0.76476466    -0.02400
O1737       O  0.29402685  0.56105951  0.66621977    -0.80800
O1738       O  0.43811524  0.55811904  0.64631034    -0.65500
O1739       O  0.35583695  0.57605760  0.68030668    -1.12100
C1740       C  0.35921425  0.69879001  0.59385769     1.06100
O1741       O  0.45130512  0.62848957  0.64215004    -0.78700
O1742       O  0.40769426  0.66678939  0.69037052    -0.66300
Ni1743     Ni  0.32979750  0.52595265  0.67389309     1.34900
C1744       C  0.38169235  0.67596075  0.70575428     0.84800
O1745       O  0.40235669  0.52233865  0.70465072    -0.79300
O1746       O  0.36153331  0.48393500  0.68554131    -0.89500
C1747       C  0.45784828  0.58825380  0.64575359     0.84400
O1748       O  0.33707247  0.52194335  0.61221487    -0.67700
O1749       O  0.38398153  0.70300349  0.61498365    -0.87000
C1750       C  0.36304028  0.51203609  0.59655302     0.85200
C1751       C  0.38618597  0.48813768  0.70680973     1.06800
H1752       H  0.39073204  0.60067395  0.59221080     0.38600
O1753       O  0.38989070  0.61160990  0.62214931    -1.09700
O1754       O  0.35754409  0.66510855  0.68557080    -0.66300
Ni1755     Ni  0.34863733  0.62140784  0.64014898     1.26300
O1756       O  0.38752253  0.52287594  0.61646196    -0.66600
O1757       O  0.34243732  0.66530857  0.59780897    -0.78900
C1758       C  0.28920673  0.60195079  0.67146862     0.84600
O1759       O  0.30850906  0.63043291  0.66058324    -0.66000
Ni1760     Ni  0.41575887  0.66190488  0.62928277     1.27400
Ni1761     Ni  0.39681965  0.56624063  0.66259311     1.26100
H1762       H  0.35510933  0.58707591  0.71019700     0.39100
C1763       C  0.41278847  0.83086088  0.80871653    -0.02400
C1764       C  0.33746373  0.85401460  0.48667403    -0.02400
O1765       O  0.21569601  0.94339715  0.92252462    -0.80800
O1766       O  0.07445038  0.96856654  0.89707303    -0.65500
O1767       O  0.15309801  0.94236132  0.94200624    -1.12100
C1768       C  0.14773473  0.82113712  0.84084012     1.06100
O1769       O  0.06008956  0.89895916  0.89651816    -0.78700
O1770       O  0.09637637  0.83505618  0.91829670    -0.66300
Ni1771     Ni  0.18436650  0.98552380  0.93930686     1.34900
C1772       C  0.11514717  0.83221824  0.94912332     0.84800
O1773       O  0.10902422  0.00375515  0.96087648    -0.79300
O1774       O  0.15669943  0.03055504  0.96015379    -0.89500
C1775       C  0.05388984  0.93940409  0.89758778     0.84400
O1776       O  0.17839109  0.00202263  0.87927802    -0.67700
O1777       O  0.12010623  0.83171320  0.83625605    -0.87000
C1778       C  0.15329599  0.01277837  0.86199685     0.85200
C1779       C  0.12874485  0.03254484  0.97177905     1.06800
H1780       H  0.12861985  0.92119271  0.85127068     0.38600
O1781       O  0.12274689  0.90951877  0.87899903    -1.09700
O1782       O  0.13930745  0.85536496  0.95090493    -0.66300
Ni1783     Ni  0.15931569  0.89070184  0.90698468     1.26300
O1784       O  0.12788067  0.99951105  0.87665115    -0.66600
O1785       O  0.16517320  0.83913869  0.86939330    -0.78900
C1786       C  0.21874898  0.90450230  0.93639708     0.84600
O1787       O  0.19650517  0.87779461  0.93626464    -0.66000
Ni1788     Ni  0.09177043  0.86763580  0.86711090     1.27400
Ni1789     Ni  0.11445055  0.95723175  0.91898944     1.26100
H1790       H  0.15050236  0.93466768  0.97208384     0.39100
C1791       C  0.09522142  0.68642304  0.57534394    -0.02400
C1792       C  0.16992275  0.65707493  0.73972160    -0.02400
C1793       C  0.14338426  0.67454129  0.61986036    -0.05700
C1794       C  0.11143163  0.68089606  0.62225755     0.00200
C1795       C  0.09843701  0.66861503  0.66441325    -0.08400
C1796       C  0.11830881  0.66152225  0.70014096    -0.05700
C1797       C  0.14994181  0.65618150  0.69612534     0.00200
C1798       C  0.16020079  0.65298109  0.65184474    -0.08300
C1799       C  0.18347601  0.62061433  0.63277325     0.62100
H1800       H  0.15456889  0.67747187  0.58896394     0.12800
H1801       H  0.10888090  0.65935245  0.73239753     0.12800
C1802       C  0.06500686  0.66120200  0.67621962     0.62300
F1803       F  0.16966533  0.59486625  0.60063494    -0.22800
F1804       F  0.19477487  0.59197941  0.66237101    -0.20200
F1805       F  0.20705359  0.64306676  0.61342690    -0.19800
F1806       F  0.04960116  0.63784366  0.64434947    -0.19900
F1807       F  0.05131959  0.70095726  0.68605340    -0.20200
F1808       F  0.06186770  0.63621088  0.71310333    -0.22900
C1809       C  0.17860841  0.75376009  0.82798255    -0.08100
C1810       C  0.15884646  0.78487400  0.81168497     0.00200
C1811       C  0.14751070  0.77865704  0.76908418    -0.08400
C1812       C  0.15198437  0.73807913  0.74736155    -0.05700
C1813       C  0.16920132  0.70328079  0.76489495     0.00200
C1814       C  0.18558525  0.71408865  0.80484487    -0.08300
C1815       C  0.21153526  0.68714004  0.82351966     0.62100
H1816       H  0.18815782  0.76071846  0.85986557     0.12800
H1817       H  0.14144574  0.73451405  0.71599965     0.12800
C1818       C  0.12979867  0.81419425  0.74634370     0.62300
F1819       F  0.22186396  0.70463560  0.86290858    -0.22800
F1820       F  0.23613563  0.68713216  0.79537618    -0.20200
F1821       F  0.20269837  0.64483247  0.83142081    -0.19800
F1822       F  0.14090705  0.85551864  0.75746406    -0.19900
F1823       F  0.09936144  0.81168278  0.75759947    -0.20200
F1824       F  0.13240575  0.80936724  0.70164301    -0.22900
C1825       C  0.15849688  0.57481355  0.75339153    -0.05700
C1826       C  0.15609312  0.61908673  0.76926168     0.00200
C1827       C  0.14354282  0.62374645  0.81271126    -0.08400
C1828       C  0.14611196  0.58834513  0.84122768    -0.05700
C1829       C  0.15534872  0.54641734  0.82709866     0.00200
C1830       C  0.15983185  0.53871024  0.78178966    -0.08300
C1831       C  0.16726615  0.99148669  0.76660885     0.62100
H1832       H  0.16334265  0.56906537  0.71927955     0.12800
H1833       H  0.13908799  0.59298003  0.87504215     0.12800
C1834       C  0.12403325  0.66116793  0.83111111     0.62300
F1835       F  0.17302454  0.98950506  0.72214377    -0.22800
F1836       F  0.14362677  0.96309762  0.77540425    -0.20200
F1837       F  0.19304921  0.97774347  0.78780329    -0.19800
F1838       F  0.11514348  0.69088715  0.80094864    -0.19900
F1839       F  0.13933504  0.68267109  0.86457973    -0.20200
F1840       F  0.09752480  0.64383938  0.84817601    -0.22900
C1841       C  0.08608775  0.72942714  0.00263677    -0.05700
C1842       C  0.10073665  0.72904248  0.54740693     0.00200
C1843       C  0.11550980  0.77023848  0.55777173    -0.08400
C1844       C  0.11899050  0.80178889  0.52427043    -0.05700
C1845       C  0.10833560  0.79843294  0.98255068     0.00200
C1846       C  0.09202181  0.75986881  0.97078603    -0.08300
C1847       C  0.08203466  0.74806827  0.92411012     0.62100
H1848       H  0.07207294  0.70264907  0.99310709     0.12800
H1849       H  0.13100517  0.83223975  0.53100242     0.12800
C1850       C  0.12906208  0.78164364  0.60185809     0.62300
F1851       F  0.07278581  0.70471243  0.91930885    -0.22800
F1852       F  0.10598853  0.75356802  0.89535467    -0.20200
F1853       F  0.05780166  0.77408065  0.91257489    -0.19800
F1854       F  0.15669730  0.76098097  0.60570422    -0.19900
F1855       F  0.10977299  0.76960324  0.63494225    -0.20200
F1856       F  0.13405429  0.82639079  0.60701594    -0.22900
C1857       C  0.13016058  0.60705512  0.98461836    -0.05700
C1858       C  0.11768073  0.56707099  0.99627485     0.00200
C1859       C  0.10486541  0.56425332  0.54155141    -0.08400
C1860       C  0.09941319  0.60382674  0.56504018    -0.05700
C1861       C  0.10810706  0.64533086  0.54920640     0.00200
C1862       C  0.12634859  0.64585344  0.00974036    -0.08300
C1863       C  0.14963626  0.68089215  0.99668790     0.62100
H1864       H  0.14495852  0.60735986  0.95613997     0.12800
H1865       H  0.08686650  0.60276245  0.59530862     0.12800
C1866       C  0.09097749  0.01744606  0.55396716     0.62300
F1867       F  0.17796868  0.66146445  0.99170554    -0.22800
F1868       F  0.15398478  0.71503529  0.02594372    -0.20200
F1869       F  0.14169257  0.69749157  0.95690146    -0.19800
F1870       F  0.11561409  0.98949041  0.55634283    -0.19900
F1871       F  0.06970868  0.99913559  0.52589804    -0.20200
F1872       F  0.07780728  0.02116578  0.59505546    -0.22900
C1873       C  0.30041619  0.86572519  0.92988285    -0.05700
C1874       C  0.31015964  0.86238472  0.97421903     0.00200
C1875       C  0.27842310  0.88049424  0.50099414    -0.08400
C1876       C  0.25787588  0.88864130  0.99266472    -0.05700
C1877       C  0.24949976  0.88909915  0.94877480     0.00200
C1878       C  0.27092714  0.87687230  0.91699112    -0.08300
C1879       C  0.26268131  0.87670956  0.86890472     0.62100
H1880       H  0.31572068  0.86022445  0.90335743     0.12800
H1881       H  0.23319344  0.90901550  0.50399647     0.12800
C1882       C  0.28017004  0.88963308  0.54986350     0.62300
F1883       F  0.28478777  0.85689021  0.84302700    -0.22800
F1884       F  0.25890074  0.91945275  0.85585900    -0.20200
F1885       F  0.23602281  0.85356522  0.86194655    -0.19800
F1886       F  0.28335639  0.93433410  0.55782031    -0.19900
F1887       F  0.30332934  0.86831683  0.56936555    -0.20200
F1888       F  0.25367423  0.87582897  0.56990792    -0.22900
C1889       C  0.37683640  0.80391291  0.87070825    -0.05700
C1890       C  0.39754692  0.83610750  0.85628393     0.00200
C1891       C  0.40139321  0.87375534  0.88568566    -0.08400
C1892       C  0.38331336  0.87751537  0.92416993    -0.05700
C1893       C  0.36249823  0.84508656  0.93802018     0.00200
C1894       C  0.35840374  0.80802104  0.90826669    -0.08300
C1895       C  0.33459356  0.77121677  0.91141542     0.62100
H1896       H  0.37223036  0.77535425  0.85075362     0.12800
H1897       H  0.38673253  0.90632434  0.94448393     0.12800
C1898       C  0.42173807  0.91363467  0.87745655     0.62300
F1899       F  0.34897023  0.73226845  0.92070871    -0.22800
F1900       F  0.32013788  0.76570427  0.87163385    -0.20200
F1901       F  0.31188327  0.77833882  0.94155736    -0.19800
F1902       F  0.44735128  0.90394364  0.85333035    -0.19900
F1903       F  0.43201694  0.93210544  0.91646552    -0.20200
F1904       F  0.40518055  0.94517740  0.85651276    -0.22900
C1905       C  0.24928780  0.65853106  0.68141781    -0.05700
C1906       C  0.26042752  0.61721982  0.69203282     0.00200
C1907       C  0.24665637  0.59503041  0.72685705    -0.08400
C1908       C  0.21956807  0.61189104  0.74457246    -0.05700
C1909       C  0.20439938  0.64891484  0.72788681     0.00200
C1910       C  0.22241508  0.67627653  0.69999188    -0.08300
C1911       C  0.21583799  0.72453978  0.69109449     0.62100
H1912       H  0.26192706  0.67686158  0.65778850     0.12800
H1913       H  0.21032720  0.59511489  0.77183156     0.12800
C1914       C  0.26022829  0.55377943  0.74593906     0.62300
F1915       F  0.21786210  0.74930805  0.72937446    -0.22800
F1916       F  0.18776225  0.73005622  0.67299025    -0.20200
F1917       F  0.23657956  0.74208258  0.66223914    -0.19800
F1918       F  0.29066883  0.56029910  0.75506680    -0.19900
F1919       F  0.25702707  0.51882189  0.71655044    -0.20200
F1920       F  0.24602647  0.54247332  0.78447345    -0.22900
C1921       C  0.37601167  0.75511832  0.54404737    -0.05700
C1922       C  0.35132728  0.73445716  0.56350680     0.00200
C1923       C  0.32165456  0.74927164  0.55424355    -0.08400
C1924       C  0.31821054  0.78685525  0.52863880    -0.05700
C1925       C  0.34330331  0.81102122  0.51220105     0.00200
C1926       C  0.37341829  0.79332295  0.51989298    -0.08300
C1927       C  0.40397854  0.81110628  0.50332438     0.62100
H1928       H  0.39826902  0.74084035  0.54852963     0.12800
H1929       H  0.29548834  0.79797612  0.52226315     0.12800
C1930       C  0.29376872  0.72675491  0.57241444     0.62300
F1931       F  0.42765653  0.79953210  0.53026994    -0.22800
F1932       F  0.40503969  0.85609463  0.50207022    -0.20200
F1933       F  0.40781425  0.75964029  0.94178729    -0.19800
F1934       F  0.29538240  0.72711328  0.61739568    -0.19900
F1935       F  0.29234706  0.68389474  0.55640951    -0.20200
F1936       F  0.26710196  0.74750276  0.56103478    -0.22900
C1937       C  0.37779573  0.93800248  0.57076689    -0.05700
C1938       C  0.36469049  0.47863010  0.56030973     0.00200
C1939       C  0.34570140  0.97805939  0.52310791    -0.08400
C1940       C  0.33998228  0.93807298  0.49973654    -0.05700
C1941       C  0.34805560  0.89606833  0.51574439     0.00200
C1942       C  0.36480689  0.89777045  0.55700373    -0.08300
C1943       C  0.36812323  0.86443012  0.59357024     0.62100
H1944       H  0.39322738  0.93864092  0.59831719     0.12800
H1945       H  0.32772014  0.93931686  0.46935241     0.12800
C1946       C  0.33051838  0.51917076  0.50849969     0.62300
F1947       F  0.34790081  0.83043760  0.59378922    -0.22800
F1948       F  0.36322697  0.88579658  0.63358100    -0.20200
F1949       F  0.39739650  0.84810868  0.59356988    -0.19800
F1950       F  0.34987486  0.55478669  0.51340914    -0.19900
F1951       F  0.30459058  0.52673889  0.53325109    -0.20200
F1952       F  0.31846687  0.01552009  0.46761211    -0.22900
C1953       C  0.37136912  0.93287029  0.76050698    -0.05700
C1954       C  0.39457753  0.95163769  0.73639368     0.00200
C1955       C  0.42431437  0.93503354  0.73962718    -0.08400
C1956       C  0.42945353  0.89970339  0.76718319    -0.05700
C1957       C  0.40547057  0.87537112  0.78643597     0.00200
C1958       C  0.37528318  0.89423000  0.78371869    -0.08300
C1959       C  0.34629848  0.87740000  0.80504769     0.62100
H1960       H  0.34930201  0.94858351  0.75982489     0.12800
H1961       H  0.45265559  0.89016904  0.77150022     0.12800
C1962       C  0.45016958  0.95224521  0.71197961     0.62300
F1963       F  0.32065366  0.89203211  0.78387760    -0.22800
F1964       F  0.34481939  0.89358689  0.84738997    -0.20200
F1965       F  0.34419688  0.83241026  0.80395675    -0.19800
F1966       F  0.45729766  0.49617131  0.72630785    -0.19900
F1967       F  0.44205562  0.95050813  0.66845577    -0.20200
F1968       F  0.47654239  0.92802911  0.71626281    -0.22900
C1969       C  0.36653767  0.74774841  0.73168781    -0.05700
C1970       C  0.37992432  0.70839074  0.74233864     0.00200
C1971       C  0.39962067  0.70778263  0.77805334    -0.08400
C1972       C  0.40827151  0.74790756  0.79806013    -0.05700
C1973       C  0.39967830  0.78972295  0.78189723     0.00200
C1974       C  0.38010370  0.78809791  0.74361113    -0.08300
C1975       C  0.37372608  0.82178012  0.70849111     0.62100
H1976       H  0.35010541  0.74666974  0.70535925     0.12800
H1977       H  0.42264426  0.74651671  0.82652909     0.12800
C1978       C  0.41171876  0.66544279  0.79572354     0.62300
F1979       F  0.37727430  0.80139950  0.66775654    -0.22800
F1980       F  0.39250696  0.85718777  0.70703390    -0.20200
F1981       F  0.34400445  0.83610987  0.71219416    -0.19800
F1982       F  0.44185110  0.66073269  0.78375895    -0.19900
F1983       F  0.39551484  0.62935663  0.78018569    -0.20200
F1984       F  0.40954794  0.66650156  0.84080009    -0.22900
C1985       C  0.97579300  0.94109586  0.94564495    -0.05700
C1986       C  0.95695156  0.94836295  0.90907315     0.00200
C1987       C  0.97226225  0.96577324  0.87129136    -0.08400
C1988       C  0.00450261  0.96446800  0.86967026    -0.05700
C1989       C  0.02189889  0.95077740  0.90479067     0.00200
C1990       C  0.00734572  0.94002901  0.94391169    -0.08300
C1991       C  0.02345753  0.92492736  0.98470192     0.62100
H1992       H  0.96603538  0.93500354  0.97700730     0.12800
H1993       H  0.01652358  0.97326547  0.84022119     0.12800
C1994       C  0.95701148  0.99117324  0.83524149     0.62300
F1995       F  0.01519428  0.95199145  0.01976969    -0.22800
F1996       F  0.05478232  0.92546057  0.98158829    -0.20200
F1997       F  0.01435101  0.88246705  0.99313274    -0.19800
F1998       F  0.93602092  0.01997387  0.85271632    -0.19900
F1999       F  0.94344872  0.96366585  0.80489986    -0.20200
F2000       F  0.97777892  0.01630705  0.81267514    -0.22900
C2001       C  0.90948449  0.90396829  0.84294725    -0.05700
C2002       C  0.90205368  0.93779703  0.87379315     0.00200
C2003       C  0.87653466  0.96456977  0.86114967    -0.08400
C2004       C  0.85655662  0.94755574  0.82919229    -0.05700
C2005       C  0.86292957  0.91188908  0.80010367     0.00200
C2006       C  0.89301236  0.89356938  0.80418310    -0.08300
C2007       C  0.91162835  0.86596264  0.77059833     0.62100
H2008       H  0.93135674  0.88962760  0.84555278     0.12800
H2009       H  0.83567071  0.96503386  0.82497675     0.12800
C2010       C  0.86838744  0.01247484  0.87343055     0.62300
F2011       F  0.94007085  0.88473631  0.76592371    -0.22800
F2012       F  0.90026307  0.86227351  0.72925644    -0.20200
F2013       F  0.91572254  0.82406238  0.78543276    -0.19800
F2014       F  0.89003507  0.03658667  0.89487152    -0.19900
F2015       F  0.84190158  0.01377554  0.89777052    -0.20200
F2016       F  0.86310128  0.03494935  0.83550658    -0.22900
C2017       C  0.86642503  0.95368499  0.71493830    -0.05700
C2018       C  0.83913703  0.94906180  0.73898211     0.00200
C2019       C  0.81803795  0.98590856  0.73614359    -0.08400
C2020       C  0.82963597  0.52419148  0.70508306    -0.05700
C2021       C  0.85853957  0.52704783  0.68601858     0.00200
C2022       C  0.87145386  0.98534697  0.68368319    -0.08300
C2023       C  0.89819275  0.97902272  0.65229553     0.62100
H2024       H  0.88393969  0.93006014  0.71884948     0.12800
H2025       H  0.81429777  0.55131941  0.69987899     0.12800
C2026       C  0.79044455  0.99716730  0.76506923     0.62300
F2027       F  0.91053840  0.93729697  0.65417658    -0.22800
F2028       F  0.92969339  0.51991120  0.69017673    -0.20200
F2029       F  0.88833200  0.98418005  0.61010897    -0.19800
F2030       F  0.78706138  0.97323506  0.80190110    -0.19900
F2031       F  0.76433113  0.99289719  0.74047122    -0.20200
F2032       F  0.79266943  0.04048542  0.77979357    -0.22900
C2033       C  0.83887138  0.87035121  0.68595215    -0.05700
C2034       C  0.84234411  0.86255962  0.73127924     0.00200
C2035       C  0.84709554  0.81679417  0.74167786    -0.08400
C2036       C  0.85501794  0.78615743  0.70760944    -0.05700
C2037       C  0.85401747  0.79669219  0.66368550     0.00200
C2038       C  0.84471100  0.83912213  0.65256479    -0.08300
C2039       C  0.84140959  0.85210519  0.60523387     0.62100
H2040       H  0.83029058  0.90138223  0.67564965     0.12800
H2041       H  0.86059343  0.75249127  0.71464201     0.12800
C2042       C  0.84205522  0.79746709  0.78639525     0.62300
F2043       F  0.83413976  0.89604722  0.60137147    -0.22800
F2044       F  0.81868440  0.82770627  0.58524697    -0.20200
F2045       F  0.86849507  0.84480364  0.58341956    -0.19800
F2046       F  0.81236922  0.80382402  0.79940532    -0.19900
F2047       F  0.86161462  0.81537453  0.81649276    -0.20200
F2048       F  0.84692912  0.75252053  0.78621068    -0.22900
C2049       C  0.92870709  0.01749914  0.95556218    -0.05700
C2050       C  0.90977291  0.97997123  0.94859895     0.00200
C2051       C  0.88116542  0.98034221  0.97243292    -0.08400
C2052       C  0.87840297  0.51729717  0.00385395    -0.05700
C2053       C  0.90813807  0.53518778  0.52651910     0.00200
C2054       C  0.92824734  0.54732355  0.99129219    -0.08300
C2055       C  0.96538861  0.54657202  0.52007386     0.62100
H2056       H  0.94927637  0.02179414  0.93687532     0.12800
H2057       H  0.85712000  0.51871112  0.02190071     0.12800
C2058       C  0.85629229  0.94554226  0.96981769     0.62300
F2059       F  0.99023725  0.53025702  0.49689284    -0.22800
F2060       F  0.97192522  0.54420571  0.56396931    -0.20200
F2061       F  0.94179223  0.62228934  0.00072055    -0.19800
F2062       F  0.85435039  0.92459412  0.00911361    -0.19900
F2063       F  0.86068940  0.91428235  0.93729916    -0.20200
F2064       F  0.82859678  0.96544433  0.96281357    -0.22900
C2065       C  0.91686521  0.89870527  0.99102146    -0.05700
C2066       C  0.91946572  0.89603883  0.94457348     0.00200
C2067       C  0.92247326  0.85142996  0.92800487    -0.08400
C2068       C  0.90784947  0.81768321  0.95105865    -0.05700
C2069       C  0.90271587  0.82211851  0.99610237     0.00200
C2070       C  0.91093726  0.86238042  0.01702919    -0.08300
C2071       C  0.94662400  0.83506758  0.54360613     0.62100
H2072       H  0.92063265  0.92954811  0.00844764     0.12800
H2073       H  0.90583118  0.78517824  0.93593677     0.12800
C2074       C  0.94844145  0.83380549  0.89930721     0.62300
F2075       F  0.96692364  0.86967101  0.54763220    -0.22800
F2076       F  0.96313647  0.79651393  0.54060971    -0.20200
F2077       F  0.92875299  0.83499617  0.58084293    -0.19800
F2078       F  0.96917488  0.86512727  0.88727637    -0.19900
F2079       F  0.93684386  0.81279435  0.86260095    -0.20200
F2080       F  0.96472634  0.80307814  0.92205197    -0.22900
C2081       C  0.04594787  0.72185751  0.60250496    -0.05700
C2082       C  0.05922996  0.68640553  0.57765044     0.00200
C2083       C  0.03783213  0.65790488  0.55424809    -0.08400
C2084       C  0.00724748  0.66024814  0.56667864    -0.05700
C2085       C  0.99518601  0.69185826  0.59548217     0.00200
C2086       C  0.01454614  0.72443253  0.61289443    -0.08300
C2087       C  0.00271186  0.75904036  0.64523590     0.62100
H2088       H  0.06078031  0.74639253  0.61660148     0.12800
H2089       H  0.99171325  0.63640534  0.55273028     0.12800
C2090       C  0.03701874  0.63177948  0.00720414     0.62300
F2091       F  0.02582461  0.78537436  0.66175228    -0.22800
F2092       F  0.98863974  0.73890441  0.67987315    -0.20200
F2093       F  0.98197722  0.78561923  0.62514017    -0.19800
F2094       F  0.06426877  0.63163263  0.98547360    -0.19900
F2095       F  0.01608370  0.64344753  0.97603553    -0.20200
F2096       F  0.03075758  0.58927726  0.01924877    -0.22900
C2097       C  0.72129830  0.64048723  0.99040471    -0.05700
C2098       C  0.70548804  0.62137002  0.52717201     0.00200
C2099       C  0.71745939  0.62291161  0.57198238    -0.08400
C2100       C  0.74926300  0.62122181  0.57789945    -0.05700
C2101       C  0.76977899  0.62924147  0.54466495     0.00200
C2102       C  0.75237459  0.64914827  0.99804816    -0.08300
C2103       C  0.77367678  0.65914102  0.96056456     0.62100
H2104       H  0.71352112  0.63840383  0.95699825     0.12800
H2105       H  0.75852579  0.61929455  0.61054423     0.12800
C2106       C  0.70160464  0.63025823  0.61672147     0.62300
F2107       F  0.75891078  0.65779682  0.92082801    -0.22800
F2108       F  0.79697923  0.62870146  0.95879438    -0.20200
F2109       F  0.78585913  0.70071500  0.96684403    -0.19800
F2110       F  0.70162488  0.59127865  0.63869479    -0.19900
F2111       F  0.67273536  0.64712281  0.61675841    -0.20200
F2112       F  0.71803731  0.66065124  0.64153818    -0.22900
C2113       C  0.53624655  0.57799101  0.69169807    -0.05700
C2114       C  0.55459384  0.57489637  0.65338041     0.00200
C2115       C  0.53880308  0.56798438  0.61191910    -0.08400
C2116       C  0.50682630  0.57112907  0.61237369    -0.05700
C2117       C  0.48990858  0.57718412  0.65048891     0.00200
C2118       C  0.50455195  0.57923244  0.69114082    -0.08300
C2119       C  0.48831909  0.58458231  0.73498538     0.62100
H2120       H  0.54704231  0.58180172  0.72327164     0.12800
H2121       H  0.49447779  0.57008538  0.58180625     0.12800
C2122       C  0.55085459  0.56009285  0.56507942     0.62300
F2123       F  0.49669559  0.55063714  0.76138924    -0.22800
F2124       F  0.45702799  0.58452478  0.73170845    -0.20200
F2125       F  0.49699053  0.62358524  0.75532733    -0.19800
F2126       F  0.53373099  0.52732654  0.54475251    -0.19900
F2127       F  0.58038553  0.54657702  0.55994092    -0.20200
F2128       F  0.54703595  0.59824260  0.54230151    -0.22900
C2129       C  0.65451090  0.57201528  0.57445224    -0.05700
C2130       C  0.64897614  0.61052394  0.55040779     0.00200
C2131       C  0.62176830  0.63451528  0.56167359    -0.08400
C2132       C  0.60379124  0.61917102  0.59604513    -0.05700
C2133       C  0.61020457  0.58242293  0.62179738     0.00200
C2134       C  0.63750600  0.55845050  0.61088193    -0.08300
C2135       C  0.65123839  0.52039582  0.63616441     0.62100
H2136       H  0.67401571  0.55281735  0.56470737     0.12800
H2137       H  0.58364404  0.63702958  0.60439769     0.12800
C2138       C  0.59969832  0.67520434  0.03128014     0.62300
F2139       F  0.63299517  0.48384608  0.63381611    -0.22800
F2140       F  0.65649369  0.53259308  0.67901716    -0.20200
F2141       F  0.67915217  0.50695587  0.61946633    -0.19800
F2142       F  0.59591862  0.66121789  0.98860881    -0.19900
F2143       F  0.61560773  0.71400289  0.03307264    -0.20200
F2144       F  0.58236396  0.69034354  0.55745524    -0.22900
C2145       C  0.76316586  0.88258801  0.83647819    -0.05700
C2146       C  0.74143474  0.88353037  0.80400701     0.00200
C2147       C  0.75049929  0.88883431  0.76052551    -0.08400
C2148       C  0.78146047  0.89514967  0.75145253    -0.05700
C2149       C  0.80466078  0.89464829  0.78366487     0.00200
C2150       C  0.79462262  0.88561350  0.82800744    -0.08300
C2151       C  0.81241545  0.87572471  0.86932925     0.62100
H2152       H  0.75514511  0.87701741  0.86946630     0.12800
H2153       H  0.78763617  0.90142706  0.71818118     0.12800
C2154       C  0.72768338  0.88599849  0.72354546     0.62300
F2155       F  0.80233780  0.83622486  0.88559323    -0.22800
F2156       F  0.80626151  0.90845284  0.90023196    -0.20200
F2157       F  0.84309372  0.87159271  0.86550287    -0.19800
F2158       F  0.70482125  0.91652159  0.73056311    -0.19900
F2159       F  0.71513401  0.84433000  0.72150872    -0.20200
F2160       F  0.74098399  0.89401681  0.68348712    -0.22900
C2161       C  0.67366546  0.50696096  0.94418987    -0.05700
C2162       C  0.64302450  0.49895749  0.93415367     0.00200
C2163       C  0.62125140  0.53003678  0.94974976    -0.08400
C2164       C  0.63125307  0.56699943  0.97372030    -0.05700
C2165       C  0.66212225  0.57792116  0.98275605     0.00200
C2166       C  0.68369835  0.54333360  0.97082673    -0.08300
C2167       C  0.71647870  0.53906529  0.98636282     0.62100
H2168       H  0.68682184  0.98411516  0.92204450     0.12800
H2169       H  0.61413298  0.58983097  0.98440725     0.12800
C2170       C  0.58718171  0.52617377  0.94070307     0.62300
F2171       F  0.72505783  0.49531934  0.98742542    -0.22800
F2172       F  0.72048012  0.55500146  0.02831915    -0.20200
F2173       F  0.73601636  0.55930336  0.95776739    -0.19800
F2174       F  0.57757868  0.97440981  0.96950973    -0.19900
F2175       F  0.58214034  0.52064219  0.89642707    -0.20200
F2176       F  0.57114759  0.56324092  0.95436678    -0.22900
C2177       C  0.66163888  0.74030835  0.94745787    -0.05700
C2178       C  0.64591267  0.72870954  0.90959496     0.00200
C2179       C  0.63559183  0.68531855  0.90435463    -0.08400
C2180       C  0.64520847  0.65392263  0.93395912    -0.05700
C2181       C  0.65798899  0.66443266  0.97574242     0.00200
C2182       C  0.66609526  0.71073956  0.98185960    -0.08300
C2183       C  0.68051251  0.73185325  0.02228676     0.62100
H2184       H  0.67028071  0.77361444  0.95016434     0.12800
H2185       H  0.64259125  0.62088322  0.92215186     0.12800
C2186       C  0.61498450  0.67144451  0.86690228     0.62300
F2187       F  0.68786299  0.76523735  0.53221656    -0.22800
F2188       F  0.72365824  0.71533731  0.51665890    -0.20200
F2189       F  0.68519674  0.70116357  0.56281528    -0.19800
F2190       F  0.59013860  0.69913744  0.86582718    -0.19900
F2191       F  0.60414463  0.62904684  0.87121507    -0.20200
F2192       F  0.63062011  0.67329657  0.82802449    -0.22900
C2193       C  0.59146489  0.46544961  0.72395662    -0.05700
C2194       C  0.60905143  0.98075459  0.75486201     0.00200
C2195       C  0.61968722  0.51945376  0.76563042    -0.08400
C2196       C  0.60979140  0.55118668  0.73702650    -0.05700
C2197       C  0.59614607  0.54092156  0.69590247     0.00200
C2198       C  0.58615199  0.49537952  0.69029492    -0.08300
C2199       C  0.56799730  0.47634653  0.65197425     0.62100
H2200       H  0.58973204  0.93592176  0.70906920     0.12800
H2201       H  0.61271339  0.58413295  0.74908669     0.12800
C2202       C  0.62901347  0.03846161  0.80898844     0.62300
F2203       F  0.53758972  0.48651996  0.65691098    -0.22800
F2204       F  0.57019313  0.43096031  0.64893094    -0.20200
F2205       F  0.57876668  0.49121304  0.61322795    -0.19800
F2206       F  0.66707596  0.50344492  0.79768858    -0.19900
F2207       F  0.60741197  0.03307176  0.84118742    -0.20200
F2208       F  0.65318244  0.57402308  0.79718780    -0.22900
C2209       C  0.58713671  0.69906168  0.72279247    -0.05700
C2210       C  0.61758827  0.70375693  0.73490270     0.00200
C2211       C  0.63849072  0.67073751  0.72070869    -0.08400
C2212       C  0.62747457  0.63463384  0.69612299    -0.05700
C2213       C  0.59630117  0.62726119  0.68619073     0.00200
C2214       C  0.57660480  0.66488398  0.69475673    -0.08300
C2215       C  0.54660992  0.67778919  0.67325621     0.62100
H2216       H  0.57144214  0.72511195  0.73233608     0.12800
H2217       H  0.64345111  0.60945322  0.68643408     0.12800
C2218       C  0.67234517  0.67191164  0.73150200     0.62300
F2219       F  0.54886978  0.72060545  0.65938460    -0.22800
F2220       F  0.52338657  0.67663005  0.70362775    -0.20200
F2221       F  0.53834030  0.65379313  0.63696109    -0.19800
F2222       F  0.68717019  0.63373816  0.71822948    -0.19900
F2223       F  0.67668523  0.67644122  0.77597868    -0.20200
F2224       F  0.68606694  0.70645370  0.71065204    -0.22900
C2225       C  0.50120808  0.81485269  0.78436410    -0.05700
C2226       C  0.51294549  0.82188940  0.82593901     0.00200
C2227       C  0.49323597  0.82238988  0.86205202    -0.08400
C2228       C  0.46173278  0.81901239  0.85498535    -0.05700
C2229       C  0.44860002  0.82102605  0.81264714     0.00200
C2230       C  0.46962018  0.81210582  0.77644000    -0.08300
C2231       C  0.46089364  0.79918464  0.72942494     0.62100
H2232       H  0.51748839  0.81278685  0.75775714     0.12800
H2233       H  0.44750331  0.81814710  0.88359160     0.12800
C2234       C  0.50567420  0.82926627  0.90779417     0.62300
F2235       F  0.44386285  0.83112004  0.71096469    -0.22800
F2236       F  0.44545462  0.75985390  0.72775893    -0.20200
F2237       F  0.48605661  0.79316380  0.70254150    -0.19800
F2238       F  0.51943805  0.87007685  0.91135045    -0.19900
F2239       F  0.52693884  0.79717127  0.91595287    -0.20200
F2240       F  0.48312852  0.82741566  0.93936077    -0.22900
loop_ 
_geom_bond_atom_site_label_1 
_geom_bond_atom_site_label_2 
_geom_bond_distance 
_geom_bond_site_symmetry_2 
_ccdc_geom_bond_type 
O1           Ni7   1.927       .  S
O1           C22   1.275       .  A
O2          Ni25   1.926       .  S
O2           C11   1.275       .  A
O3           Ni7   1.897       .  S
O3          Ni25   1.901       .  S
O3          Ni19   1.916       .  S
O3           H26   0.967       .  S
C4           O21   1.287       .  A
C4           O13   1.276       .  A
C4         C1602   1.506       .  S
O5          Ni24   1.936       .  S
O5           C11   1.274       .  A
O6          Ni24   1.923       .  S
O6            C8   1.269       .  A
Ni7          O10   1.922       .  S
Ni7          O12   1.920       .  S
C8           O18   1.266       .  A
C8          C514   1.475       .  S
O9          Ni25   1.919       .  S
O9           C15   1.279       .  A
O10          C15   1.270       .  A
C11         C546   1.486       .  S
O12          C14   1.274       .  A
O13         Ni24   1.919       .  S
C14          O20   1.281       .  A
C14         C498   1.502       .  S
C15         C530   1.501       .  S
H16          O17   0.965       .  S
O17         Ni25   1.915       .  S
O17         Ni19   1.901       .  S
O17         Ni24   1.899       .  S
O18         Ni19   1.915       .  S
Ni19         O23   1.911       .  S
Ni19         O21   1.952       .  S
O20         Ni25   1.961       .  S
C22          O23   1.267       .  A
C22         C466   1.474       .  S
C27         C434   1.567       .  S
C27         C453   1.580       .  S
C27         C517   1.618       .  S
C27         C533   1.612       .  S
C28         C485   1.626       .  S
C28         C501   1.625       .  S
C28         C978   1.579       .  S
C28        C1010   1.576       .  S
O29         Ni35   1.933       .  S
O29          C50   1.274       .  A
O30         Ni53   1.940       .  S
O30          C39   1.278       .  A
O31         Ni35   1.909       .  S
O31         Ni53   1.916       .  S
O31         Ni47   1.930       .  S
O31          H54   0.966       .  S
C32          O49   1.285       .  A
C32          O41   1.273       .  A
C32         C341   1.493       .  S
O33         Ni52   1.907       .  S
O33          C39   1.269       .  A
O34         Ni52   1.912       .  S
O34          C36   1.268       .  A
Ni35         O38   1.926       .  S
Ni35         O40   1.916       .  S
C36          O46   1.268       .  A
C36         C373   1.476       .  S
O37         Ni53   1.919       .  S
O37          C43   1.273       .  A
O38          C43   1.272       .  A
C39         C405   1.508       .  S
O40          C42   1.274       .  A
O41         Ni52   1.901       .  S
C42          O48   1.290       .  A
C42         C357   1.509       .  S
C43         C949   1.476   1_554  S
H44          O45   0.966       .  S
O45         Ni53   1.918       .  S
O45         Ni47   1.908       .  S
O45         Ni52   1.905       .  S
O46         Ni47   1.925       .  S
Ni47         O51   1.909       .  S
Ni47         O49   1.954       .  S
O48         Ni53   1.979       .  S
C50          O51   1.268       .  A
C50         C421   1.478       .  S
C55         C306   1.614       .  S
C55         C322   1.632       .  S
C55         C370   1.609       .  S
C55         C386   1.624       .  S
C56         C325   1.640       .  S
C56         C338   1.612       .  S
C56         C354   1.635       .  S
C56         C469   1.610       .  S
O57         Ni63   1.934       .  S
O57          C78   1.271       .  A
O58         Ni81   1.909       .  S
O58          C67   1.263       .  A
O59         Ni63   1.907       .  S
O59         Ni81   1.909       .  S
O59         Ni75   1.901       .  S
O59          H82   0.963       .  S
C60          O77   1.275       .  A
C60          O69   1.275       .  A
C60         C242   1.490       .  S
O61         Ni80   1.918       .  S
O61          C67   1.262       .  A
O62         Ni80   1.893       .  S
O62          C64   1.262       .  A
Ni63         O66   1.941   1_545  S
Ni63         O68   1.914       .  S
C64          O74   1.266       .  A
C64         C290   1.468       .  S
O65         Ni81   1.877       .  S
O65          C71   1.260   1_545  A
O66          C71   1.280       .  A
C67         C437   1.464       .  S
O68          C70   1.268       .  A
O69         Ni80   1.905       .  S
C70          O76   1.279       .  A
C70         C258   1.492   1_545  S
C71        C1394   1.473       .  S
H72          O73   0.969       .  S
O73         Ni81   1.888       .  S
O73         Ni75   1.921       .  S
O73         Ni80   1.915       .  S
O74         Ni75   1.923       .  S
Ni75         O79   1.914       .  S
Ni75         O77   1.919       .  S
O76         Ni81   1.956       .  S
C78          O79   1.270       .  A
C78         C226   1.498       .  S
C83         C210   1.601       .  S
C83         C277   1.569       .  S
C83         C293   1.595       .  S
C83         C549   1.619       .  S
C84         C245   1.577   1_556  S
C84         C261   1.622   1_556  S
C84         C754   1.630       .  S
C84         C773   1.595       .  S
O85         Ni91   1.947       .  S
O85         C106   1.279       .  A
O86        Ni109   1.965       .  S
O86          C95   1.278       .  A
O87         Ni91   1.893       .  S
O87        Ni109   1.915       .  S
O87        Ni103   1.901       .  S
O87         H110   0.965       .  S
C88         O105   1.287       .  A
C88          O97   1.279       .  A
C88         C130   1.485       .  S
O89        Ni108   1.889       .  S
O89          C95   1.249       .  A
O90        Ni108   1.878       .  S
O90          C92   1.258       .  A
Ni91         O94   1.923       .  S
Ni91         O96   1.943       .  S
C92         O102   1.274       .  A
C92         C165   1.506       .  S
O93        Ni109   1.906       .  S
O93          C99   1.278       .  A
O94          C99   1.281       .  A
C95         C309   1.505       .  S
O96          C98   1.277       .  A
O97        Ni108   1.907       .  S
C98         O104   1.278       .  A
C98        C1269   1.507       .  S
C99        C1298   1.469       .  S
H100        O101   0.968       .  S
O101       Ni109   1.912       .  S
O101       Ni103   1.894       .  S
O101       Ni108   1.866       .  S
O102       Ni103   1.962       .  S
Ni103       O107   1.910       .  S
Ni103       O105   1.946       .  S
O104       Ni109   1.956       .  S
C106        O107   1.270       .  A
C106        C197   1.489       .  S
C111        C114   1.625       .  S
C111        C162   1.583       .  S
C111        C181   1.573       .  S
C111        C402   1.599       .  S
C112        C117   1.603       .  S
C112        C133   1.586       .  S
C112        C146   1.620       .  S
C112        C229   1.594       .  S
C113        C114   1.424       .  A
C113        C118   1.408       .  A
C113        H120   1.067       .  S
C114        C115   1.462       .  A
C115        C122   1.525       .  S
C115        C116   1.434       .  A
C116        C117   1.412       .  A
C116        H121   1.073       .  S
C117        C118   1.421       .  A
C118        C119   1.524       .  S
C119        F123   1.384       .  S
C119        F124   1.373       .  S
C119        F125   1.382       .  S
C122        F126   1.377       .  S
C122        F127   1.377       .  S
C122        F128   1.385       .  S
C129        C130   1.396       .  A
C129        C134   1.416       .  A
C129        H136   1.082       .  S
C130        C131   1.409       .  A
C131        C138   1.522       .  S
C131        C132   1.403       .  A
C132        C133   1.427       .  A
C132        H137   1.075       .  S
C133        C134   1.451       .  A
C134        C135   1.531       .  S
C135        F139   1.386       .  S
C135        F140   1.380       .  S
C135        F141   1.373       .  S
C138        F142   1.384       .  S
C138        F143   1.383       .  S
C138        F144   1.383       .  S
C145        C146   1.427       .  A
C145        C150   1.430       .  A
C145        H152   1.076       .  S
C146        C147   1.446       .  A
C147        C154   1.516       .  S
C147        C148   1.417       .  A
C148        C149   1.395       .  A
C148        H153   1.086       .  S
C149       C1218   1.512       .  S
C149        C150   1.416       .  A
C150       C1271   1.512   1_545  S
C151       C1270   1.513       .  S
C151        F155   1.384       .  S
C151        F156   1.384       .  S
C151        F157   1.382       .  S
C154        F158   1.371       .  S
C154        F159   1.378       .  S
C154        F160   1.386       .  S
C161        C166   1.388       .  A
C161        C722   1.409       .  A
C161        H168   1.062       .  S
C162        C163   1.437       .  A
C162        C721   1.415   1_554  A
C163        C170   1.517       .  S
C163        C164   1.430       .  A
C164        C725   1.413   1_554  A
C164        H169   1.083       .  S
C165        C166   1.418       .  A
C165        C724   1.412       .  A
C166        C167   1.528       .  S
C167        F171   1.386       .  S
C167        F172   1.380       .  S
C167        F173   1.381       .  S
C170        F174   1.377       .  S
C170        F175   1.379       .  S
C170        F176   1.385       .  S
C177        C178   1.390       .  A
C177        C182   1.399       .  A
C177        H184   1.087       .  S
C178       C1219   1.471       .  S
C178        C739   1.411       .  A
C179       C1306   1.518       .  S
C179        C180   1.407       .  A
C179        C738   1.410   1_554  A
C180        C181   1.419       .  A
C180        H185   1.081       .  S
C181        C742   1.456       .  A
C182        C183   1.537       .  S
C182        C741   1.455       .  A
C183        F187   1.386       .  S
C183        F188   1.366       .  S
C183        F189   1.382       .  S
C186       C1299   1.517       .  S
C186        F190   1.383       .  S
C186        F191   1.381       .  S
C186        F192   1.385       .  S
C193        C194   1.438       .  A
C193        C198   1.411       .  A
C193        H200   1.064       .  S
C194        C644   1.628       .  S
C194        C755   1.456       .  A
C195        C202   1.526       .  S
C195        C754   1.457   1_554  A
C195        C756   1.422   1_554  A
C196        C197   1.394       .  A
C196        C755   1.420       .  A
C196        H761   1.086       .  S
C197        C198   1.396       .  A
C198        C199   1.520       .  S
C199        F203   1.380       .  S
C199        F204   1.383       .  S
C199        F205   1.383       .  S
H201        C756   1.085   1_554  S
C202        F206   1.383       .  S
C202        F207   1.366       .  S
C202        F208   1.385       .  S
C209        C210   1.416       .  A
C209        C214   1.410       .  A
C209        H216   1.065       .  S
C210        C211   1.444       .  A
C211        C218   1.529       .  S
C211        C212   1.415       .  A
C212        C213   1.415       .  A
C212        H217   1.076       .  S
C213        C644   1.592       .  S
C213        C214   1.447       .  A
C214        C215   1.541       .  S
C215        F219   1.382       .  S
C215        F220   1.386       .  S
C215        F221   1.373       .  S
C218        F222   1.369       .  S
C218        F223   1.385       .  S
C218        F224   1.383       .  S
C225        C226   1.399       .  A
C225        C230   1.421       .  A
C225        H232   1.082       .  S
C226        C227   1.415       .  A
C227        C234   1.524       .  S
C227        C228   1.405       .  A
C228        C229   1.420       .  A
C228        H233   1.069       .  S
C229        C230   1.454       .  A
C230        C231   1.533       .  S
C231        F235   1.380       .  S
C231        F236   1.369       .  S
C231        F237   1.386       .  S
C234        F238   1.383       .  S
C234        F239   1.383       .  S
C234        F240   1.385       .  S
C241        C242   1.399       .  A
C241        C246   1.402       .  A
C241        H248   1.084       .  S
C242        C243   1.410       .  A
C243        C250   1.521       .  S
C243        C244   1.408       .  A
C244        C245   1.427       .  A
C244        H249   1.070       .  S
C245        C246   1.457       .  A
C246        C247   1.543   1_554  S
C247        F251   1.388   1_556  S
C247        F252   1.375       .  S
C247        F813   1.379       .  S
C250        F254   1.383       .  S
C250        F255   1.383       .  S
C250        F256   1.384       .  S
F253        C807   1.379       .  S
C257        C262   1.416       .  A
C257       C1378   1.384       .  A
C257        H264   1.082       .  S
C258       C1377   1.387       .  A
C258       C1379   1.405       .  A
C259       C1386   1.516       .  S
C259        C260   1.418   1_554  A
C259       C1378   1.406       .  A
C260        C261   1.432   1_556  A
C260        H265   1.082       .  S
C261        C262   1.478       .  A
C262        C263   1.545       .  S
C263        F267   1.371       .  S
C263        F268   1.385       .  S
C263        F269   1.366       .  S
C266       C1379   1.517   1_545  S
C266        F270   1.383       .  S
C266        F271   1.382       .  S
C266       F1392   1.385   1_554  S
F272       C1386   1.385   1_556  S
C273        C274   1.389       .  A
C273        C278   1.401       .  A
C273        H280   1.084       .  S
C274       C1191   1.468       .  S
C274        C275   1.408       .  A
C275        C282   1.520       .  S
C275        C276   1.400       .  A
C276        C277   1.421       .  A
C276        H281   1.070       .  S
C277        C278   1.451       .  A
C278        C279   1.529       .  S
C279        F283   1.386       .  S
C279        F284   1.374       .  S
C279        F285   1.376       .  S
C282        F287   1.384       .  S
C282        F288   1.385       .  S
C282       F1406   1.378       .  S
F286       C1402   1.373       .  S
C289        C290   1.378       .  A
C289        C294   1.407       .  A
C289        H296   1.085       .  S
C290        C291   1.400       .  A
C291        C298   1.511       .  S
C291        C292   1.403       .  A
C292        C293   1.430       .  A
C292        H297   1.082       .  S
C293        C294   1.472       .  A
C294        C295   1.543       .  S
C295        F299   1.386       .  S
C295        F300   1.363       .  S
C295        F301   1.375       .  S
C298        F302   1.378       .  S
C298        F303   1.384       .  S
C298        F304   1.385       .  S
C305        C306   1.414       .  A
C305        C310   1.402       .  A
C305        H312   1.076       .  S
C306        C307   1.451       .  A
C307        C314   1.519       .  S
C307        C308   1.420   1_655  A
C308        C309   1.397       .  A
C308        H313   1.083       .  S
C309        C310   1.430   1_455  A
C310        C311   1.528   1_655  S
C311        F315   1.385   1_455  S
C311        F316   1.384       .  S
C311        F317   1.383       .  S
C314        F318   1.375       .  S
C314        F319   1.375       .  S
C314        F320   1.386       .  S
C321        C322   1.429       .  A
C321        C326   1.438       .  A
C321        H328   1.080       .  S
C322        C323   1.457       .  A
C323        C330   1.533       .  S
C323        C324   1.436       .  A
C324        C325   1.419       .  A
C324        H329   1.073       .  S
C325        C326   1.449       .  A
C326        C327   1.530       .  S
C327        F331   1.385       .  S
C327        F332   1.369       .  S
C327        F333   1.382       .  S
C330        F334   1.359       .  S
C330        F335   1.383       .  S
C330        F336   1.385       .  S
C337        C338   1.414       .  A
C337        C342   1.405       .  A
C337        H344   1.071       .  S
C338        C339   1.460       .  A
C339        C346   1.532       .  S
C339       C1460   1.428       .  A
C340        C341   1.397       .  A
C340       C1459   1.424   1_545  A
C340        H345   1.082       .  S
C341       C1462   1.407       .  A
C342        C343   1.524       .  S
C342       C1461   1.418       .  A
C343        F347   1.385       .  S
C343        F349   1.381       .  S
C343       F1468   1.382       .  S
C346        F350   1.370       .  S
C346        F351   1.381       .  S
C346        F352   1.386       .  S
F348       C1463   1.384       .  S
C353        C354   1.432       .  A
C353        C358   1.418       .  A
C353        H360   1.076       .  S
C354        C355   1.457       .  A
C355        C362   1.511       .  S
C355        C356   1.425       .  A
C356        C357   1.391       .  A
C356        H361   1.083       .  S
C357        C358   1.416       .  A
C358        C359   1.521       .  S
C359        F363   1.384       .  S
C359        F364   1.383       .  S
C359        F365   1.376       .  S
C362        F366   1.375       .  S
C362        F367   1.355       .  S
C362        F368   1.386       .  S
C369        C370   1.428       .  A
C369       C1494   1.410       .  A
C369        H376   1.071       .  S
C370        C371   1.458       .  A
C371        C378   1.520       .  S
C371       C1492   1.414       .  A
C372       C1491   1.426   1_545  A
C372        C933   1.405       .  A
C372        H377   1.083       .  S
C373        C932   1.396       .  A
C373        C934   1.404   1_554  A
C374        C935   1.518       .  S
C374       C1489   1.407   1_545  A
C374        C933   1.407       .  A
C375        C934   1.515       .  S
C375        F379   1.385       .  S
C375        F380   1.378       .  S
C375        F941   1.382   1_556  S
C378        F382   1.374       .  S
C378        F383   1.366       .  S
C378        F384   1.386       .  S
F381        C935   1.384       .  S
C385        C386   1.437       .  A
C385        C390   1.427       .  A
C385        H392   1.079       .  S
C386        C387   1.438       .  A
C387        C394   1.478       .  S
C387        C388   1.397       .  A
C388        C389   1.381       .  A
C388        H393   1.088       .  S
C389        C603   1.498       .  S
C389        C390   1.412       .  A
C390        C951   1.510       .  S
C391        C950   1.519       .  S
C391        F395   1.384       .  S
C391        F396   1.378       .  S
C391        F397   1.382       .  S
C394        F398   1.368       .  S
C394        F399   1.347       .  S
C394        F400   1.388       .  S
C401        C402   1.428       .  A
C401        C406   1.419       .  A
C401        H408   1.075       .  S
C402        C403   1.450       .  A
C403        C970   1.541       .  S
C403        C404   1.404       .  A
C404        C405   1.404   1_455  A
C404        H409   1.080   1_455  S
C405        C406   1.411   1_655  A
C406        C407   1.514   1_455  S
C407        F411   1.385   1_655  S
C407        F412   1.382       .  S
C407        F413   1.383       .  S
C410        C963   1.541       .  S
C410        F414   1.367       .  S
C410        F415   1.387       .  S
C410        F416   1.383       .  S
C417        C422   1.412       .  A
C417        C978   1.419       .  A
C417        H424   1.083       .  S
C418        C588   1.590       .  S
C418        C419   1.469       .  A
C418        C977   1.426   1_554  A
C419        C426   1.541       .  S
C419        C420   1.409       .  A
C420        C421   1.381       .  A
C420        H425   1.087       .  S
C421        C982   1.406   1_554  A
C422        C423   1.516       .  S
C422        C981   1.409       .  A
C423        F427   1.385       .  S
C423        F428   1.383       .  S
C423        F429   1.383       .  S
C426        F430   1.382       .  S
C426        F431   1.368       .  S
C426        F432   1.388       .  S
C433        C434   1.424       .  A
C433        C438   1.397       .  A
C433        H440   1.085       .  S
C434        C435   1.463       .  A
C435        C442   1.543       .  S
C435        C436   1.411       .  A
C436        C437   1.391       .  A
C436        H441   1.086       .  S
C437        C438   1.407       .  A
C438        C439   1.522       .  S
C439        F443   1.383       .  S
C439        F444   1.380       .  S
C439        F445   1.381       .  S
C442        F446   1.386       .  S
C442        F447   1.370       .  S
C442        F448   1.383       .  S
C449        C450   1.426       .  A
C449        C454   1.417       .  A
C449        H456   1.074       .  S
C450        C588   1.582       .  S
C450        C451   1.439       .  A
C451       C1018   1.539       .  S
C451        C452   1.408       .  A
C452        C453   1.420       .  A
C452        H457   1.065       .  S
C453        C454   1.438       .  A
C454        C455   1.535       .  S
C455        F459   1.372   1_545  S
C455        F460   1.377       .  S
C455        F461   1.385       .  S
C458       C1011   1.534       .  S
C458        F462   1.377       .  S
C458        F463   1.372       .  S
C458       F1024   1.385       .  S
F464       C1018   1.386       .  S
C465        C466   1.369       .  A
C465        C470   1.398       .  A
C465        H472   1.086       .  S
C466        C467   1.407       .  A
C467        C474   1.514       .  S
C467        C468   1.419       .  A
C468        C469   1.429       .  A
C468        H473   1.076       .  S
C469        C470   1.455       .  A
C470        C471   1.481       .  S
C471        F475   1.388       .  S
C471        F476   1.372       .  S
C471        F477   1.349       .  S
C474        F478   1.383       .  S
C474        F479   1.383       .  S
C474        F480   1.384       .  S
C481        C482   1.401   1_545  A
C481        C486   1.421       .  A
C481       H1608   1.082   1_545  S
C482       C1124   1.504       .  S
C482        C483   1.415   1_565  A
C483        C490   1.528       .  S
C483        C484   1.403       .  A
C484        C485   1.432       .  A
C484        H489   1.075       .  S
C485        C486   1.458       .  A
C486        C487   1.532       .  S
C487        F491   1.387   1_545  S
C487        F492   1.374       .  S
C487        F493   1.380       .  S
H488       C1601   1.083       .  S
C490        F495   1.382       .  S
C490        F496   1.384       .  S
C490       F1614   1.384   1_545  S
F494       C1610   1.383       .  S
C497        C498   1.398       .  A
C497        C502   1.426       .  A
C497        H504   1.083       .  S
C498        C499   1.412       .  A
C499        C506   1.522       .  S
C499        C500   1.407       .  A
C500        C501   1.427       .  A
C500        H505   1.070       .  S
C501        C502   1.463       .  A
C502        C503   1.529       .  S
C503       F1067   1.386       .  S
C503       F1068   1.379       .  S
C503       F1069   1.364       .  S
C506        F510   1.379       .  S
C506        F511   1.386       .  S
C506        F512   1.376       .  S
F507       C1063   1.386       .  S
F508       C1063   1.382       .  S
F509       C1063   1.361       .  S
C513        C518   1.416       .  A
C513       C1634   1.387       .  A
C513       H1640   1.085       .  S
C514       C1633   1.385       .  A
C514       C1635   1.402       .  A
C515       C1642   1.520       .  S
C515        C516   1.405       .  A
C515       C1634   1.401   1_545  A
C516        C517   1.431       .  A
C516        H521   1.062       .  S
C517        C518   1.463   1_545  A
C518        C519   1.521       .  S
C519        F523   1.382       .  S
C519        F524   1.387       .  S
C519        F525   1.363       .  S
H520       C1633   1.084       .  S
C522       C1635   1.518       .  S
C522        F527   1.374       .  S
C522       F1646   1.383       .  S
C522       F1648   1.385       .  S
F526       C1642   1.383       .  S
F528       C1642   1.384       .  S
C529        C530   1.400       .  A
C529        C534   1.411       .  A
C529        H536   1.085       .  S
C530        C531   1.423       .  A
C531        C538   1.530       .  S
C531        C532   1.406       .  A
C532        C533   1.421       .  A
C532        H537   1.074       .  S
C533        C534   1.453       .  A
C534        C535   1.536       .  S
C535        F539   1.386       .  S
C535        F540   1.379       .  S
C535        F541   1.367       .  S
C538        F542   1.381       .  S
C538        F543   1.380       .  S
C538        F544   1.384       .  S
C545        C546   1.393       .  A
C545        C550   1.420       .  A
C545        H552   1.083       .  S
C546        C547   1.403       .  A
C547        C554   1.519       .  S
C547        C548   1.410       .  A
C548        C549   1.429       .  A
C548        H553   1.075       .  S
C549        C550   1.461       .  A
C550        C551   1.537       .  S
C551        F555   1.385       .  S
C551        F556   1.368       .  S
C551        F557   1.374       .  S
C554        F558   1.384       .  S
C554        F559   1.383       .  S
C554        F560   1.384       .  S
O561       Ni567   1.921       .  S
O561        C582   1.271       .  A
O562       Ni585   1.923       .  S
O562        C571   1.271       .  A
O563       Ni567   1.893       .  S
O563       Ni585   1.899       .  S
O563       Ni579   1.913       .  S
O563        H586   0.965       .  S
C564        O581   1.282       .  A
C564        O573   1.272       .  A
C564       C2162   1.511       .  S
O565       Ni584   1.926       .  S
O565        C571   1.270       .  A
O566       Ni584   1.914       .  S
O566        C568   1.269       .  A
Ni567       O570   1.917       .  S
Ni567       O572   1.916       .  S
C568        O578   1.267       .  A
C568       C1074   1.471       .  S
O569       Ni585   1.921       .  S
O569        C575   1.280       .  A
O570        C575   1.273       .  A
C571       C1106   1.479       .  S
O572        C574   1.271       .  A
O573       Ni584   1.915       .  S
C574        O580   1.276       .  A
C574       C1058   1.492       .  S
C575       C1090   1.500       .  S
H576        O577   0.966       .  S
O577       Ni585   1.923       .  S
O577       Ni579   1.918       .  S
O577       Ni584   1.902       .  S
O578       Ni579   1.918       .  S
Ni579       O583   1.913       .  S
Ni579       O581   1.951       .  S
O580       Ni585   1.945       .  S
C582        O583   1.268       .  A
C582       C1026   1.473       .  S
C587        C994   1.566       .  S
C587       C1013   1.576       .  S
C587       C1077   1.611       .  S
C587       C1093   1.607       .  S
C588       C1045   1.621   1_554  S
C588       C1061   1.621   1_554  S
O589       Ni595   1.923       .  S
O589        C610   1.274       .  A
O590       Ni613   1.917       .  S
O590        C599   1.270       .  A
O591       Ni595   1.890       .  S
O591       Ni613   1.910       .  S
O591       Ni607   1.935       .  S
O591        H614   0.965       .  S
C592        O609   1.291       .  A
C592        O601   1.271       .  A
C592        C901   1.499       .  S
O593       Ni612   1.909       .  S
O593        C599   1.272       .  A
O594       Ni612   1.933       .  S
O594        C596   1.273       .  A
Ni595       O598   1.924       .  S
Ni595       O600   1.912       .  S
C596        O606   1.271       .  A
C596        C933   1.501       .  S
O597       Ni613   1.940       .  S
O597        C603   1.276       .  A
O598        C603   1.280       .  A
C599        C965   1.488       .  S
O600        C602   1.270       .  A
O601       Ni612   1.901       .  S
C602        O608   1.283       .  A
C602        C917   1.502       .  S
H604        O605   0.968       .  S
O605       Ni613   1.925       .  S
O605       Ni607   1.910       .  S
O605       Ni612   1.889       .  S
O606       Ni607   1.933       .  S
Ni607       O611   1.922       .  S
Ni607       O609   1.981       .  S
O608       Ni613   1.965       .  S
C610        O611   1.273       .  A
C610        C981   1.474       .  S
C615        C866   1.589       .  S
C615        C882   1.608       .  S
C615        C930   1.597       .  S
C615        C946   1.617       .  S
C616        C885   1.590       .  S
C616        C898   1.619       .  S
C616        C914   1.616       .  S
C616       C1029   1.584       .  S
O617       Ni623   1.920       .  S
O617        C638   1.267       .  A
O618       Ni641   1.899       .  S
O618        C627   1.264       .  A
O619       Ni623   1.913       .  S
O619       Ni641   1.903       .  S
O619       Ni635   1.900       .  S
O619        H642   0.965       .  S
C620        O637   1.266       .  A
C620        O629   1.272       .  A
C620        C802   1.479       .  S
O621       Ni640   1.904       .  S
O621        C627   1.264       .  A
O622       Ni640   1.895       .  S
O622        C624   1.261       .  A
Ni623       O626   1.938   1_545  S
Ni623       O628   1.906       .  S
C624        O634   1.274       .  A
C624        C850   1.472       .  S
O625       Ni641   1.894       .  S
O625        C631   1.262   1_545  A
O626        C631   1.275       .  A
C627        C997   1.457       .  S
O628        C630   1.266       .  A
O629       Ni640   1.928       .  S
C630        O636   1.283       .  A
C630        C818   1.489   1_545  S
C631       C1954   1.478       .  S
H632        O633   0.970       .  S
O633       Ni641   1.911       .  S
O633       Ni635   1.918       .  S
O633       Ni640   1.919       .  S
O634       Ni635   1.943       .  S
Ni635       O639   1.893       .  S
Ni635       O637   1.906       .  S
O636       Ni641   1.965       .  S
C638        O639   1.265       .  A
C638        C786   1.479       .  S
C643        C770   1.601       .  S
C643        C837   1.572       .  S
C643        C853   1.589       .  S
C643       C1109   1.611       .  S
C644        C805   1.567       .  S
C644        C821   1.605       .  S
O645       Ni651   1.946       .  S
O645        C666   1.278       .  A
O646       Ni669   1.920       .  S
O646        C655   1.267       .  A
O647       Ni651   1.904       .  S
O647       Ni669   1.906       .  S
O647       Ni663   1.898       .  S
O647        H670   0.970       .  S
C648        O665   1.276       .  A
C648        O657   1.269       .  A
C648        C690   1.475       .  S
O649       Ni668   1.898       .  S
O649        C655   1.261       .  A
O650       Ni668   1.891       .  S
O650        C652   1.263       .  A
Ni651       O654   1.934       .  S
Ni651       O656   1.940       .  S
C652        O662   1.276       .  A
C652        C725   1.499       .  S
O653       Ni669   1.908       .  S
O653        C659   1.273       .  A
O654        C659   1.281       .  A
C655        C869   1.462       .  S
O656        C658   1.275       .  A
O657       Ni668   1.894       .  S
C658        O664   1.273       .  A
C658       C1829   1.498       .  S
C659       C1858   1.480       .  S
H660        O661   0.966       .  S
O661       Ni669   1.913       .  S
O661       Ni663   1.925       .  S
O661       Ni668   1.904       .  S
O662       Ni663   1.949       .  S
Ni663       O667   1.918       .  S
Ni663       O665   1.928       .  S
O664       Ni669   1.942       .  S
C666        O667   1.272       .  A
C666        C757   1.489       .  S
C671        C674   1.608       .  S
C671        C722   1.589       .  S
C671        C741   1.578       .  S
C671        C962   1.584       .  S
C672        C677   1.597       .  S
C672        C693   1.573       .  S
C672        C706   1.606       .  S
C672        C789   1.584       .  S
C673        C674   1.416       .  A
C673        C678   1.404       .  A
C673        H680   1.065       .  S
C674        C675   1.464       .  A
C675        C682   1.531       .  S
C675        C676   1.426       .  A
C676        C677   1.410       .  A
C676        H681   1.074       .  S
C677        C678   1.423       .  A
C678        C679   1.521       .  S
C679        F683   1.385       .  S
C679        F684   1.375       .  S
C679        F685   1.382       .  S
C682        F686   1.374       .  S
C682        F687   1.377       .  S
C682        F688   1.387       .  S
C689        C690   1.394       .  A
C689        C694   1.414       .  A
C689        H696   1.082       .  S
C690        C691   1.407       .  A
C691        C698   1.521       .  S
C691        C692   1.397       .  A
C692        C693   1.423       .  A
C692        H697   1.077       .  S
C693        C694   1.452       .  A
C694        C695   1.532       .  S
C695        F699   1.385       .  S
C695        F700   1.380       .  S
C695        F701   1.374       .  S
C698        F702   1.383       .  S
C698        F703   1.383       .  S
C698        F704   1.382       .  S
C705        C706   1.423       .  A
C705        C710   1.423       .  A
C705        H712   1.079       .  S
C706        C707   1.447       .  A
C707        C714   1.527       .  S
C707        C708   1.414       .  A
C708        C709   1.398       .  A
C708        H713   1.086       .  S
C709       C1778   1.501       .  S
C709        C710   1.414       .  A
C710       C1831   1.514   1_545  S
C711       C1830   1.515       .  S
C711        F715   1.385       .  S
C711        F716   1.382       .  S
C711        F717   1.383       .  S
C714        F718   1.371       .  S
C714        F719   1.382       .  S
C714        F720   1.385       .  S
C721        C726   1.390       .  A
C721        H728   1.062       .  S
C722        C723   1.444       .  A
C723        C730   1.516       .  S
C723        C724   1.435       .  A
C724        H729   1.084       .  S
C725        C726   1.418       .  A
C726        C727   1.533       .  S
C727        F731   1.385       .  S
C727        F732   1.383       .  S
C727        F733   1.384       .  S
C730        F734   1.381       .  S
C730        F735   1.374       .  S
C730        F736   1.385       .  S
C737        C738   1.391       .  A
C737        C742   1.399   1_556  A
C737        H744   1.086       .  S
C738       C1779   1.470       .  S
C739       C1866   1.519       .  S
C739        C740   1.410       .  A
C740        C741   1.421       .  A
C740        H745   1.076       .  S
C742        C743   1.541   1_554  S
C743        F747   1.387       .  S
C743        F748   1.370   1_556  S
C743        F749   1.382       .  S
C746       C1859   1.518       .  S
C746        F750   1.383       .  S
C746        F751   1.382       .  S
C746        F752   1.385       .  S
C753        C754   1.438       .  A
C753        C758   1.406       .  A
C753        H760   1.063       .  S
C755        C762   1.521       .  S
C756        C757   1.397       .  A
C757        C758   1.397       .  A
C758        C759   1.522       .  S
C759        F763   1.383       .  S
C759        F764   1.383       .  S
C759        F765   1.383       .  S
C762        F766   1.384       .  S
C762        F767   1.360       .  S
C762        F768   1.385       .  S
C769        C770   1.414       .  A
C769        C774   1.408       .  A
C769        H776   1.069       .  S
C770        C771   1.446       .  A
C771        C778   1.531       .  S
C771        C772   1.419       .  A
C772        C773   1.415       .  A
C772        H777   1.073       .  S
C773        C774   1.448       .  A
C774        C775   1.539       .  S
C775        F779   1.383       .  S
C775        F780   1.386       .  S
C775        F781   1.370       .  S
C778        F782   1.372       .  S
C778        F783   1.386       .  S
C778        F784   1.382       .  S
C785        C786   1.395       .  A
C785        C790   1.412       .  A
C785        H792   1.081       .  S
C786        C787   1.412       .  A
C787        C794   1.526       .  S
C787        C788   1.399       .  A
C788        C789   1.420       .  A
C788        H793   1.069       .  S
C789        C790   1.451       .  A
C790        C791   1.532       .  S
C791        F795   1.380       .  S
C791        F796   1.371       .  S
C791        F797   1.385       .  S
C794        F798   1.384       .  S
C794        F799   1.383       .  S
C794        F800   1.384       .  S
C801        C802   1.394       .  A
C801        C806   1.402       .  A
C801        H808   1.084       .  S
C802        C803   1.408       .  A
C803        C810   1.518       .  S
C803        C804   1.409       .  A
C804        C805   1.425       .  A
C804        H809   1.073       .  S
C805        C806   1.457       .  A
C806        C807   1.539       .  S
C807        F811   1.387       .  S
C807        F812   1.374       .  S
C810        F814   1.385       .  S
C810        F815   1.381       .  S
C810        F816   1.384       .  S
C817       C1938   1.384       .  A
C817        C822   1.405       .  A
C817        H824   1.087       .  S
C818       C1937   1.384       .  A
C818       C1939   1.412       .  A
C819       C1946   1.514       .  S
C819       C1938   1.407       .  A
C819        C820   1.415       .  A
C820        C821   1.432       .  A
C820        H825   1.081       .  S
C821        C822   1.467       .  A
C822        C823   1.542       .  S
C823        F827   1.364       .  S
C823        F828   1.387       .  S
C823        F829   1.381       .  S
C826       C1939   1.517   1_545  S
C826        F830   1.383       .  S
C826        F831   1.382       .  S
C826       F1952   1.384       .  S
F832       C1946   1.385       .  S
C833        C834   1.392       .  A
C833        C838   1.406       .  A
C833        H840   1.084       .  S
C834       C1751   1.480       .  S
C834        C835   1.408       .  A
C835        C842   1.517       .  S
C835        C836   1.406       .  A
C836        C837   1.424       .  A
C836        H841   1.071       .  S
C837        C838   1.453       .  A
C838        C839   1.529       .  S
C839        F843   1.386       .  S
C839        F844   1.378       .  S
C839        F845   1.372       .  S
C842       F1966   1.374       .  S
C842        F847   1.384       .  S
C842        F848   1.385       .  S
F846       C1962   1.374       .  S
C849        C850   1.387       .  A
C849        C854   1.405       .  A
C849        H856   1.088       .  S
C850        C851   1.405       .  A
C851        C858   1.514       .  S
C851        C852   1.404       .  A
C852        C853   1.430       .  A
C852        H857   1.083       .  S
C853        C854   1.458       .  A
C854        C855   1.534       .  S
C855        F859   1.387       .  S
C855        F860   1.359       .  S
C855        F861   1.383       .  S
C858        F862   1.382       .  S
C858        F863   1.383       .  S
C858        F864   1.383       .  S
C865        C866   1.426       .  A
C865        C870   1.390   1_655  A
C865        H872   1.073       .  S
C866        C867   1.452       .  A
C867        C874   1.528       .  S
C867        C868   1.419   1_655  A
C868        C869   1.396       .  A
C868        H873   1.083       .  S
C869        C870   1.402       .  A
C870        C871   1.525       .  S
C871        F875   1.384   1_556  S
C871        F876   1.382       .  S
C871        F877   1.383       .  S
C874        F878   1.372       .  S
C874        F879   1.374       .  S
C874        F880   1.386       .  S
C881        C882   1.418       .  A
C881        C886   1.425       .  A
C881        H888   1.059       .  S
C882        C883   1.449       .  A
C883        C890   1.536       .  S
C883        C884   1.416       .  A
C884        C885   1.418       .  A
C884        H889   1.077       .  S
C885        C886   1.443       .  A
C886        C887   1.541       .  S
C887        F891   1.385       .  S
C887        F892   1.368       .  S
C887        F893   1.379       .  S
C890        F894   1.364       .  S
C890        F895   1.381       .  S
C890        F896   1.387       .  S
C897        C898   1.417       .  A
C897        C902   1.397       .  A
C897        H904   1.064       .  S
C898        C899   1.460       .  A
C899        C906   1.530       .  S
C899       C2020   1.432       .  A
C900       C2019   1.432   1_545  A
C900        C901   1.399       .  A
C900        H905   1.085       .  S
C901       C2022   1.412   1_545  A
C902        C903   1.526       .  S
C902       C2021   1.414       .  A
C903        F907   1.386       .  S
C903       F2028   1.383       .  S
C903        F909   1.379       .  S
C906        F910   1.372       .  S
C906        F911   1.381       .  S
C906        F912   1.387       .  S
F908       C2023   1.381   1_545  S
C913        C914   1.429       .  A
C913        C918   1.410       .  A
C913        H920   1.075       .  S
C914        C915   1.454       .  A
C915        C922   1.522       .  S
C915        C916   1.427       .  A
C916        C917   1.397       .  A
C916        H921   1.082       .  S
C917        C918   1.414       .  A
C918        C919   1.525       .  S
C919        F923   1.385       .  S
C919        F924   1.382       .  S
C919        F925   1.379       .  S
C922        F926   1.378       .  S
C922        F927   1.368       .  S
C922        F928   1.385       .  S
C929        C930   1.426       .  A
C929       C2054   1.402       .  A
C929        H936   1.071       .  S
C930        C931   1.453       .  A
C931        C938   1.522       .  S
C931       C2052   1.419   1_556  A
C932       C2051   1.414   1_544  A
C932        H937   1.085       .  S
C934       C2049   1.398       .  A
C935        F939   1.385       .  S
C935        F940   1.382       .  S
C938        F942   1.383   1_556  S
C938        F943   1.373       .  S
C938        F944   1.382       .  S
C945        C946   1.429       .  A
C945        C950   1.404   1_556  A
C945        H952   1.081   1_556  S
C946        C947   1.446       .  A
C947        C954   1.529       .  S
C947        C948   1.409       .  A
C948        C949   1.395       .  A
C948        H953   1.085       .  S
C949        C950   1.412   1_556  A
C951        F955   1.384       .  S
C951        F956   1.383       .  S
C951        F957   1.382       .  S
C954        F958   1.375       .  S
C954        F959   1.379       .  S
C954        F960   1.386       .  S
C961        C962   1.424       .  A
C961        C966   1.418       .  A
C961        H968   1.076       .  S
C962        C963   1.455       .  A
C963        C964   1.399       .  A
C964        C965   1.393   1_455  A
C964        H969   1.082   1_455  S
C965        C966   1.408   1_655  A
C966        C967   1.518   1_455  S
C967        F971   1.384   1_655  S
C967        F972   1.383       .  S
C967        F973   1.378       .  S
C970        F974   1.370   1_554  S
C970        F975   1.385   1_554  S
C970        F976   1.382       .  S
C977        C982   1.413       .  A
C977        H984   1.082       .  S
C978        C979   1.468       .  A
C979        C986   1.545       .  S
C979        C980   1.406       .  A
C980        C981   1.383       .  A
C980        H985   1.087       .  S
C982        C983   1.517       .  S
C983        F987   1.384       .  S
C983        F988   1.383       .  S
C983        F989   1.383       .  S
C986        F990   1.382       .  S
C986        F991   1.371       .  S
C986        F992   1.387       .  S
C993        C994   1.423       .  A
C993        C998   1.393       .  A
C993       H1000   1.084       .  S
C994        C995   1.464       .  A
C995       C1002   1.541       .  S
C995        C996   1.410       .  A
C996        C997   1.389       .  A
C996       H1001   1.085       .  S
C997        C998   1.406       .  A
C998        C999   1.522       .  S
C999       F1003   1.384       .  S
C999       F1004   1.381       .  S
C999       F1005   1.382       .  S
C1002      F1006   1.386       .  S
C1002      F1007   1.372       .  S
C1002      F1008   1.382       .  S
C1009      C1010   1.423       .  A
C1009      C1014   1.407       .  A
C1009      H1016   1.073       .  S
C1010      C1011   1.434       .  A
C1011      C1012   1.409       .  A
C1012      C1013   1.424       .  A
C1012      H1017   1.069       .  S
C1013      C1014   1.440       .  A
C1014      C1015   1.542       .  S
C1015      F1019   1.373   1_545  S
C1015      F1020   1.376       .  S
C1015      F1021   1.386       .  S
C1018      F1022   1.376   1_554  S
C1018      F1023   1.372       .  S
C1025      C1026   1.381       .  A
C1025      C1030   1.410       .  A
C1025      H1032   1.086       .  S
C1026      C1027   1.403       .  A
C1027      C1034   1.518       .  S
C1027      C1028   1.409       .  A
C1028      C1029   1.425       .  A
C1028      H1033   1.079       .  S
C1029      C1030   1.464       .  A
C1030      C1031   1.530       .  S
C1031      F1035   1.388       .  S
C1031      F1036   1.379       .  S
C1031      F1037   1.363       .  S
C1034      F1038   1.383       .  S
C1034      F1039   1.384       .  S
C1034      F1040   1.384       .  S
C1041      C1042   1.406   1_545  A
C1041      C1046   1.425       .  A
C1041      H2168   1.083   1_545  S
C1042      C1684   1.513       .  S
C1042      C1043   1.422   1_565  A
C1043      C1050   1.530       .  S
C1043      C1044   1.402       .  A
C1044      C1045   1.426       .  A
C1044      H1049   1.072       .  S
C1045      C1046   1.453       .  A
C1046      C1047   1.530       .  S
C1047      F1051   1.387   1_545  S
C1047      F1052   1.374   1_556  S
C1047      F1053   1.380       .  S
H1048      C2161   1.083       .  S
C1050      F2174   1.384   1_545  S
C1050      F1055   1.382       .  S
C1050      F1056   1.383       .  S
F1054      C2170   1.383       .  S
C1057      C1058   1.391       .  A
C1057      C1062   1.417       .  A
C1057      H1064   1.085       .  S
C1058      C1059   1.407       .  A
C1059      C1066   1.520       .  S
C1059      C1060   1.409       .  A
C1060      C1061   1.431       .  A
C1060      H1065   1.065       .  S
C1061      C1062   1.459       .  A
C1062      C1063   1.518   1_556  S
C1066      F1070   1.383       .  S
C1066      F1071   1.384       .  S
C1066      F1072   1.376       .  S
C1073      C2194   1.390       .  A
C1073      C1078   1.418   1_565  A
C1073      H2200   1.084       .  S
C1074      C2193   1.390       .  A
C1074      C2195   1.396       .  A
C1075      C2202   1.519       .  S
C1075      C2194   1.402   1_545  A
C1075      C1076   1.402       .  A
C1076      C1077   1.429       .  A
C1076      H1081   1.070       .  S
C1077      C1078   1.457       .  A
C1078      C1079   1.523   1_545  S
C1079      F1083   1.381       .  S
C1079      F1084   1.386       .  S
C1079      F1085   1.364   1_565  S
H1080      C2193   1.084       .  S
C1082      C2195   1.518       .  S
C1082      F2206   1.384       .  S
C1082      F1087   1.376       .  S
C1082      F2208   1.385       .  S
F1086      C2202   1.383       .  S
F1088      C2202   1.384       .  S
C1089      C1090   1.402       .  A
C1089      C1094   1.412       .  A
C1089      H1096   1.085       .  S
C1090      C1091   1.422       .  A
C1091      C1098   1.529       .  S
C1091      C1092   1.401       .  A
C1092      C1093   1.421       .  A
C1092      H1097   1.073       .  S
C1093      C1094   1.452       .  A
C1094      C1095   1.536       .  S
C1095      F1099   1.387       .  S
C1095      F1100   1.379       .  S
C1095      F1101   1.368       .  S
C1098      F1102   1.383       .  S
C1098      F1103   1.382       .  S
C1098      F1104   1.383       .  S
C1105      C1106   1.391       .  A
C1105      C1110   1.415       .  A
C1105      H1112   1.083       .  S
C1106      C1107   1.403       .  A
C1107      C1114   1.518       .  S
C1107      C1108   1.408       .  A
C1108      C1109   1.429       .  A
C1108      H1113   1.075       .  S
C1109      C1110   1.456       .  A
C1110      C1111   1.532       .  S
C1111      F1115   1.385       .  S
C1111      F1116   1.365       .  S
C1111      F1117   1.378       .  S
C1114      F1118   1.383       .  S
C1114      F1119   1.383       .  S
C1114      F1120   1.384       .  S
O1121     Ni1127   1.927       .  S
O1121      C1142   1.271       .  A
O1122     Ni1145   1.937       .  S
O1122      C1131   1.278       .  A
O1123     Ni1127   1.896       .  S
O1123     Ni1145   1.907       .  S
O1123     Ni1139   1.916       .  S
O1123      H1146   0.967       .  S
C1124      O1141   1.278       .  A
C1124      O1133   1.274       .  A
O1125     Ni1144   1.924       .  S
O1125      C1131   1.270       .  A
O1126     Ni1144   1.920       .  S
O1126      C1128   1.269       .  A
Ni1127     O1130   1.919       .  S
Ni1127     O1132   1.915       .  S
C1128      O1138   1.268       .  A
C1128      C1634   1.481       .  S
O1129     Ni1145   1.936       .  S
O1129      C1135   1.283       .  A
O1130      C1135   1.273       .  A
C1131      C1666   1.487       .  S
O1132      C1134   1.272       .  A
O1133     Ni1144   1.922       .  S
C1134      O1140   1.285       .  A
C1134      C1618   1.502       .  S
C1135      C1650   1.509       .  S
H1136      O1137   0.967       .  S
O1137     Ni1145   1.929       .  S
O1137     Ni1139   1.913       .  S
O1137     Ni1144   1.911       .  S
O1138     Ni1139   1.923       .  S
Ni1139     O1143   1.910       .  S
Ni1139     O1141   1.927       .  S
O1140     Ni1145   1.968       .  S
C1142      O1143   1.266       .  A
C1142      C1586   1.484       .  S
C1147      C1554   1.576       .  S
C1147      C1573   1.580       .  S
C1147      C1637   1.607       .  S
C1147      C1653   1.615       .  S
C1148      C2098   1.596       .  S
C1148      C2130   1.578       .  S
C1148      C1605   1.628       .  S
C1148      C1621   1.628       .  S
O1149     Ni1155   1.929       .  S
O1149      C1170   1.276       .  A
O1150     Ni1173   1.943       .  S
O1150      C1159   1.279       .  A
O1151     Ni1155   1.898       .  S
O1151     Ni1173   1.906       .  S
O1151     Ni1167   1.939       .  S
O1151      H1174   0.966       .  S
C1152      O1169   1.293       .  A
C1152      O1161   1.271       .  A
C1152      C1461   1.506       .  S
O1153     Ni1172   1.904       .  S
O1153      C1159   1.270       .  A
O1154     Ni1172   1.922       .  S
O1154      C1156   1.270       .  A
Ni1155     O1158   1.937       .  S
Ni1155     O1160   1.919       .  S
C1156      O1166   1.272       .  A
C1156      C1493   1.494       .  S
O1157     Ni1173   1.932       .  S
O1157      C1163   1.278       .  A
O1158      C1163   1.277       .  A
C1159      C1525   1.502       .  S
O1160      C1162   1.274       .  A
O1161     Ni1172   1.903       .  S
C1162      O1168   1.291       .  A
C1162      C1477   1.514       .  S
C1163      C2069   1.488   1_554  S
H1164      O1165   0.968       .  S
O1165     Ni1173   1.931       .  S
O1165     Ni1167   1.910       .  S
O1165     Ni1172   1.893       .  S
O1166     Ni1167   1.936       .  S
Ni1167     O1171   1.920       .  S
Ni1167     O1169   1.983       .  S
O1168     Ni1173   1.982       .  S
C1170      O1171   1.274       .  A
C1170      C1541   1.478       .  S
C1175      C1426   1.600       .  S
C1175      C1442   1.621       .  S
C1175      C1490   1.604       .  S
C1175      C1506   1.616       .  S
C1176      C1445   1.625       .  S
C1176      C1458   1.604       .  S
C1176      C1474   1.622       .  S
C1176      C1589   1.617       .  S
O1177     Ni1183   1.931       .  S
O1177      C1198   1.271       .  A
O1178     Ni1201   1.922       .  S
O1178      C1187   1.267       .  A
O1179     Ni1183   1.910       .  S
O1179     Ni1201   1.911       .  S
O1179     Ni1195   1.903       .  S
O1179      H1202   0.968       .  S
C1180      O1197   1.279       .  A
C1180      O1189   1.276       .  A
C1180      C1362   1.491       .  S
O1181     Ni1200   1.916       .  S
O1181      C1187   1.262       .  A
O1182     Ni1200   1.894       .  S
O1182      C1184   1.262       .  A
Ni1183     O1186   1.936       .  S
Ni1183     O1188   1.921       .  S
C1184      O1194   1.267       .  A
C1184      C1410   1.471       .  S
O1185     Ni1201   1.875       .  S
O1185      C1191   1.261       .  A
O1186      C1191   1.279       .  A
C1187      C1557   1.472       .  S
O1188      C1190   1.270       .  A
O1189     Ni1200   1.898       .  S
C1190      O1196   1.280       .  A
C1190      C1378   1.496       .  S
H1192      O1193   0.969       .  S
O1193     Ni1201   1.885       .  S
O1193     Ni1195   1.919       .  S
O1193     Ni1200   1.909       .  S
O1194     Ni1195   1.928       .  S
Ni1195     O1199   1.911       .  S
Ni1195     O1197   1.930       .  S
O1196     Ni1201   1.958       .  S
C1198      O1199   1.271       .  A
C1198      C1346   1.493       .  S
C1203      C1330   1.599       .  S
C1203      C1397   1.563       .  S
C1203      C1413   1.596       .  S
C1203      C1669   1.620       .  S
C1204      C1874   1.628       .  S
C1204      C1893   1.592       .  S
C1204      C1365   1.590   1_556  S
C1204      C1381   1.617   1_556  S
O1205     Ni1211   1.946       .  S
O1205      C1226   1.278       .  A
O1206     Ni1229   1.967       .  S
O1206      C1215   1.277       .  A
O1207     Ni1211   1.899       .  S
O1207     Ni1229   1.920       .  S
O1207     Ni1223   1.901       .  S
O1207      H1230   0.968       .  S
C1208      O1225   1.281       .  A
C1208      O1217   1.278       .  A
C1208      C1250   1.478       .  S
O1209     Ni1228   1.897       .  S
O1209      C1215   1.258       .  A
O1210     Ni1228   1.884       .  S
O1210      C1212   1.260       .  A
Ni1211     O1214   1.918   1_565  S
Ni1211     O1216   1.944   1_565  S
C1212      O1222   1.272       .  A
C1212      C1285   1.499       .  S
O1213     Ni1229   1.916   1_545  S
O1213      C1219   1.279       .  A
O1214      C1219   1.280       .  A
C1215      C1429   1.501       .  S
O1216      C1218   1.278       .  A
O1217     Ni1228   1.911       .  S
C1218      O1224   1.278   1_545  A
H1220      O1221   0.966       .  S
O1221     Ni1229   1.919       .  S
O1221     Ni1223   1.913       .  S
O1221     Ni1228   1.888       .  S
O1222     Ni1223   1.950       .  S
Ni1223     O1227   1.916       .  S
Ni1223     O1225   1.932       .  S
O1224     Ni1229   1.957       .  S
C1226      O1227   1.270       .  A
C1226      C1317   1.493       .  S
C1231      C1234   1.621       .  S
C1231      C1282   1.591       .  S
C1231      C1301   1.581       .  S
C1231      C1522   1.591       .  S
C1232      C1237   1.601       .  S
C1232      C1253   1.579       .  S
C1232      C1266   1.613       .  S
C1232      C1349   1.594       .  S
C1233      C1234   1.422       .  A
C1233      C1238   1.409       .  A
C1233      H1240   1.069       .  S
C1234      C1235   1.467       .  A
C1235      C1242   1.532       .  S
C1235      C1236   1.430       .  A
C1236      C1237   1.408       .  A
C1236      H1241   1.073       .  S
C1237      C1238   1.422       .  A
C1238      C1239   1.522       .  S
C1239      F1243   1.385       .  S
C1239      F1244   1.374       .  S
C1239      F1245   1.381       .  S
C1242      F1246   1.375       .  S
C1242      F1247   1.378       .  S
C1242      F1248   1.387       .  S
C1249      C1250   1.397       .  A
C1249      C1254   1.416       .  A
C1249      H1256   1.082       .  S
C1250      C1251   1.406       .  A
C1251      C1258   1.521       .  S
C1251      C1252   1.400       .  A
C1252      C1253   1.426       .  A
C1252      H1257   1.076       .  S
C1253      C1254   1.450       .  A
C1254      C1255   1.532       .  S
C1255      F1259   1.385       .  S
C1255      F1260   1.380       .  S
C1255      F1261   1.373       .  S
C1258      F1262   1.382       .  S
C1258      F1263   1.383       .  S
C1258      F1264   1.382       .  S
C1265      C1266   1.424       .  A
C1265      C1270   1.427       .  A
C1265      H1272   1.077       .  S
C1266      C1267   1.448       .  A
C1267      C1274   1.523       .  S
C1267      C1268   1.415       .  A
C1268      C1269   1.396       .  A
C1268      H1273   1.086       .  S
C1269      C1270   1.415       .  A
C1271      F1275   1.384       .  S
C1271      F1276   1.383       .  S
C1271      F1277   1.383       .  S
C1274      F1278   1.371       .  S
C1274      F1279   1.380       .  S
C1274      F1280   1.386       .  S
C1281      C1842   1.414       .  A
C1281      C1286   1.387       .  A
C1281      H1288   1.058       .  S
C1282      C1841   1.414       .  A
C1282      C1283   1.442       .  A
C1283      C1290   1.516       .  S
C1283      C1284   1.434       .  A
C1284      C1845   1.412   1_554  A
C1284      H1289   1.083       .  S
C1285      C1844   1.412       .  A
C1285      C1286   1.414       .  A
C1286      C1287   1.532       .  S
C1287      F1291   1.386       .  S
C1287      F1292   1.382       .  S
C1287      F1293   1.381       .  S
C1290      F1294   1.377       .  S
C1290      F1295   1.377       .  S
C1290      F1296   1.385       .  S
C1297      C1298   1.393       .  A
C1297      C1302   1.398       .  A
C1297      H1304   1.087       .  S
C1298      C1859   1.411       .  A
C1299      C1858   1.412   1_554  A
C1299      C1300   1.411       .  A
C1300      C1301   1.421       .  A
C1300      H1305   1.078       .  S
C1301      C1862   1.457       .  A
C1302      C1303   1.536       .  S
C1302      C1861   1.453       .  A
C1303      F1307   1.386       .  S
C1303      F1308   1.369       .  S
C1303      F1309   1.382       .  S
C1306      F1310   1.383   1_545  S
C1306      F1311   1.382       .  S
C1306      F1312   1.384       .  S
C1313      C1314   1.438       .  A
C1313      C1318   1.411       .  A
C1313      H1320   1.064       .  S
C1314      C1764   1.630       .  S
C1314      C1875   1.455       .  A
C1315      C1322   1.529       .  S
C1315      C1874   1.458   1_554  A
C1315      C1876   1.423   1_554  A
C1316      C1875   1.422       .  A
C1316      C1317   1.396       .  A
C1316      H1881   1.085       .  S
C1317      C1318   1.398       .  A
C1318      C1319   1.521       .  S
C1319      F1323   1.383       .  S
C1319      F1324   1.383       .  S
C1319      F1325   1.383       .  S
H1321      C1876   1.085   1_554  S
C1322      F1326   1.383       .  S
C1322      F1327   1.368       .  S
C1322      F1328   1.385       .  S
C1329      C1330   1.411       .  A
C1329      C1334   1.410       .  A
C1329      H1336   1.065       .  S
C1330      C1331   1.446       .  A
C1331      C1338   1.531       .  S
C1331      C1332   1.414       .  A
C1332      C1333   1.414       .  A
C1332      H1337   1.073       .  S
C1333      C1764   1.599       .  S
C1333      C1334   1.452       .  A
C1334      C1335   1.540       .  S
C1335      F1339   1.382       .  S
C1335      F1340   1.386       .  S
C1335      F1341   1.372       .  S
C1338      F1342   1.370       .  S
C1338      F1343   1.386       .  S
C1338      F1344   1.383       .  S
C1345      C1346   1.395       .  A
C1345      C1350   1.415       .  A
C1345      H1352   1.082       .  S
C1346      C1347   1.415       .  A
C1347      C1354   1.523       .  S
C1347      C1348   1.408       .  A
C1348      C1349   1.422       .  A
C1348      H1353   1.070       .  S
C1349      C1350   1.453       .  A
C1350      C1351   1.530       .  S
C1351      F1355   1.380       .  S
C1351      F1356   1.370       .  S
C1351      F1357   1.385       .  S
C1354      F1358   1.383       .  S
C1354      F1359   1.382       .  S
C1354      F1360   1.385       .  S
C1361      C1362   1.397       .  A
C1361      C1366   1.403       .  A
C1361      H1368   1.085       .  S
C1362      C1363   1.405       .  A
C1363      C1370   1.520       .  S
C1363      C1364   1.410       .  A
C1364      C1365   1.431       .  A
C1364      H1369   1.068       .  S
C1365      C1366   1.462       .  A
C1366      C1367   1.545   1_554  S
C1367      F1371   1.388   1_556  S
C1367      F1372   1.370       .  S
C1367      F1933   1.381       .  S
C1370      F1374   1.383       .  S
C1370      F1375   1.384       .  S
C1370      F1376   1.384       .  S
F1373      C1927   1.380       .  S
C1377      C1382   1.416       .  A
C1377      H1384   1.082       .  S
C1379      C1380   1.415   1_554  A
C1380      C1381   1.432   1_556  A
C1380      H1385   1.081       .  S
C1381      C1382   1.469       .  A
C1382      C1383   1.534       .  S
C1383      F1387   1.373       .  S
C1383      F1388   1.386       .  S
C1383      F1389   1.365       .  S
C1386      F1390   1.383       .  S
C1386      F1391   1.382       .  S
C1393      C1394   1.390       .  A
C1393      C1398   1.401       .  A
C1393      H1400   1.084       .  S
C1394      C1395   1.412       .  A
C1395      C1402   1.518       .  S
C1395      C1396   1.402       .  A
C1396      C1397   1.417       .  A
C1396      H1401   1.073       .  S
C1397      C1398   1.453       .  A
C1398      C1399   1.532       .  S
C1399      F1403   1.387       .  S
C1399      F1404   1.376       .  S
C1399      F1405   1.374       .  S
C1402      F1407   1.384       .  S
C1402      F1408   1.385       .  S
C1409      C1410   1.382       .  A
C1409      C1414   1.407       .  A
C1409      H1416   1.087       .  S
C1410      C1411   1.405       .  A
C1411      C1418   1.512       .  S
C1411      C1412   1.404       .  A
C1412      C1413   1.427       .  A
C1412      H1417   1.083       .  S
C1413      C1414   1.467       .  A
C1414      C1415   1.539       .  S
C1415      F1419   1.386       .  S
C1415      F1420   1.361       .  S
C1415      F1421   1.380       .  S
C1418      F1422   1.382       .  S
C1418      F1423   1.383       .  S
C1418      F1424   1.383       .  S
C1425      C1426   1.416       .  A
C1425      C1430   1.398       .  A
C1425      H1432   1.081       .  S
C1426      C1427   1.455       .  A
C1427      C1434   1.528   1_565  S
C1427      C1428   1.426       .  A
C1428      C1429   1.399   1_655  A
C1428      H1433   1.083   1_665  S
C1429      C1430   1.414   1_455  A
C1430      C1431   1.516   1_655  S
C1431      F1435   1.385   1_455  S
C1431      F1436   1.380       .  S
C1431      F1437   1.383       .  S
C1434      F1438   1.373       .  S
C1434      F1439   1.379       .  S
C1434      F1440   1.385       .  S
C1441      C1442   1.428       .  A
C1441      C1446   1.430       .  A
C1441      H1448   1.076       .  S
C1442      C1443   1.434       .  A
C1443      C1450   1.525   1_565  S
C1443      C1444   1.420       .  A
C1444      C1445   1.421       .  A
C1444      H1449   1.057       .  S
C1445      C1446   1.449       .  A
C1446      C1447   1.529       .  S
C1447      F1451   1.386       .  S
C1447      F1452   1.378       .  S
C1447      F1453   1.379       .  S
C1450      F1454   1.369       .  S
C1450      F1455   1.381   1_545  S
C1450      F1456   1.382       .  S
C1457      C1458   1.428   1_545  A
C1457      C1462   1.399       .  A
C1457      H1464   1.076   1_545  S
C1458      C1459   1.460       .  A
C1459      C1466   1.533       .  S
C1460      C1461   1.397       .  A
C1460      H1465   1.084       .  S
C1462      C1463   1.522       .  S
C1463      F1467   1.383       .  S
C1463      F1469   1.382       .  S
C1466      F1470   1.378       .  S
C1466      F1471   1.373       .  S
C1466      F1472   1.385       .  S
C1473      C1474   1.424       .  A
C1473      C1478   1.415       .  A
C1473      H1480   1.071       .  S
C1474      C1475   1.457       .  A
C1475      C1482   1.514       .  S
C1475      C1476   1.428       .  A
C1476      C1477   1.397       .  A
C1476      H1481   1.085       .  S
C1477      C1478   1.417       .  A
C1478      C1479   1.522       .  S
C1479      F1483   1.385       .  S
C1479      F1484   1.383       .  S
C1479      F1485   1.374       .  S
C1482      F1486   1.385       .  S
C1482      F1487   1.370       .  S
C1482      F1488   1.379       .  S
C1489      C1490   1.424       .  A
C1489      H1496   1.073       .  S
C1490      C1491   1.447       .  A
C1491      C1498   1.527       .  S
C1492      C2053   1.390       .  A
C1492      H1497   1.083       .  S
C1493      C2052   1.398       .  A
C1493      C2054   1.405   1_554  A
C1494      C2055   1.515       .  S
C1494      C2053   1.408       .  A
C1495      C2054   1.511   1_554  S
C1495      F1499   1.383   1_554  S
C1495      F1500   1.383       .  S
C1495      F2061   1.384       .  S
C1498      F1502   1.379       .  S
C1498      F1503   1.371       .  S
C1498      F1504   1.385       .  S
F1501      C2055   1.380       .  S
C1505      C1506   1.433       .  A
C1505      C1510   1.423       .  A
C1505      H1512   1.080       .  S
C1506      C1507   1.444       .  A
C1507      C1514   1.507       .  S
C1507      C1508   1.411       .  A
C1508      C1509   1.391       .  A
C1508      H1513   1.083       .  S
C1509      C1723   1.502       .  S
C1509      C1510   1.412       .  A
C1510      C2071   1.516       .  S
C1511      C2070   1.520       .  S
C1511      F1515   1.384       .  S
C1511      F1516   1.383       .  S
C1511      F1517   1.377       .  S
C1514      F1518   1.378       .  S
C1514      F1519   1.366       .  S
C1514      F1520   1.386       .  S
C1521      C1522   1.430       .  A
C1521      C1526   1.423       .  A
C1521      H1528   1.075       .  S
C1522      C1523   1.454       .  A
C1523      C2090   1.544       .  S
C1523      C1524   1.404       .  A
C1524      C1525   1.396   1_455  A
C1524      H1529   1.074   1_455  S
C1525      C1526   1.405   1_655  A
C1526      C1527   1.515   1_455  S
C1527      F1531   1.384   1_655  S
C1527      F1532   1.383       .  S
C1527      F1533   1.383       .  S
C1530      C2083   1.546       .  S
C1530      F1534   1.366       .  S
C1530      F1535   1.387       .  S
C1530      F1536   1.382       .  S
C1537      C2098   1.420       .  A
C1537      C1542   1.416       .  A
C1537      H1544   1.082       .  S
C1538      C1708   1.585       .  S
C1538      C2097   1.423   1_554  A
C1538      C1539   1.470       .  A
C1539      C1546   1.543       .  S
C1539      C1540   1.410       .  A
C1540      C1541   1.382       .  A
C1540      H1545   1.087       .  S
C1541      C2102   1.406   1_554  A
C1542      C1543   1.514       .  S
C1542      C2101   1.408       .  A
C1543      F1547   1.384       .  S
C1543      F1548   1.383       .  S
C1543      F1549   1.383       .  S
C1546      F1550   1.381       .  S
C1546      F1551   1.369       .  S
C1546      F1552   1.388       .  S
C1553      C1554   1.425       .  A
C1553      C1558   1.399       .  A
C1553      H1560   1.084       .  S
C1554      C1555   1.465       .  A
C1555      C1562   1.543       .  S
C1555      C1556   1.416       .  A
C1556      C1557   1.393       .  A
C1556      H1561   1.086       .  S
C1557      C1558   1.406       .  A
C1558      C1559   1.522       .  S
C1559      F1563   1.383       .  S
C1559      F1564   1.381       .  S
C1559      F1565   1.382       .  S
C1562      F1566   1.386       .  S
C1562      F1567   1.368       .  S
C1562      F1568   1.383       .  S
C1569      C1570   1.423       .  A
C1569      C1574   1.414       .  A
C1569      H1576   1.076       .  S
C1570      C1708   1.580       .  S
C1570      C1571   1.439       .  A
C1571      C2138   1.537       .  S
C1571      C1572   1.412       .  A
C1572      C1573   1.421       .  A
C1572      H1577   1.067       .  S
C1573      C1574   1.444       .  A
C1574      C1575   1.543       .  S
C1575      F1579   1.373       .  S
C1575      F1580   1.376       .  S
C1575      F1581   1.386       .  S
C1578      C2131   1.534       .  S
C1578      F1582   1.375       .  S
C1578      F1583   1.372       .  S
C1578      F2144   1.386       .  S
F1584      C2138   1.385       .  S
C1585      C1586   1.392       .  A
C1585      C1590   1.416       .  A
C1585      H1592   1.085       .  S
C1586      C1587   1.403       .  A
C1587      C1594   1.524       .  S
C1587      C1588   1.404       .  A
C1588      C1589   1.431       .  A
C1588      H1593   1.070       .  S
C1589      C1590   1.464       .  A
C1590      C1591   1.532       .  S
C1591      F1595   1.384   1_565  S
C1591      F1596   1.361   1_565  S
C1591      F1597   1.386   1_565  S
C1594      F1598   1.385       .  S
C1594      F1599   1.381       .  S
C1594      F1600   1.385       .  S
C1601      C1602   1.402       .  A
C1601      C1606   1.424       .  A
C1602      C1603   1.417       .  A
C1603      C1610   1.531       .  S
C1603      C1604   1.405       .  A
C1604      C1605   1.434       .  A
C1604      H1609   1.076       .  S
C1605      C1606   1.454       .  A
C1606      C1607   1.528       .  S
C1607      F1611   1.387       .  S
C1607      F1612   1.375       .  S
C1607      F1613   1.380       .  S
C1610      F1615   1.380       .  S
C1610      F1616   1.383       .  S
C1617      C1618   1.397       .  A
C1617      C1622   1.427       .  A
C1617      H1624   1.084       .  S
C1618      C1619   1.404       .  A
C1619      C1626   1.518       .  S
C1619      C1620   1.409       .  A
C1620      C1621   1.432       .  A
C1620      H1625   1.067       .  S
C1621      C1622   1.462       .  A
C1622      C1623   1.525       .  S
C1623      F2187   1.386       .  S
C1623      F2188   1.380       .  S
C1623      F2189   1.364       .  S
C1626      F1630   1.383       .  S
C1626      F1631   1.385       .  S
C1626      F1632   1.377       .  S
F1627      C2183   1.387       .  S
F1628      C2183   1.380       .  S
F1629      C2183   1.363       .  S
C1633      C1638   1.412       .  A
C1635      C1636   1.402       .  A
C1636      C1637   1.430       .  A
C1636      H1641   1.068       .  S
C1637      C1638   1.457       .  A
C1638      C1639   1.519       .  S
C1639      F1643   1.381       .  S
C1639      F1644   1.387       .  S
C1639      F1645   1.362       .  S
C1642      F1647   1.378       .  S
C1649      C1650   1.403       .  A
C1649      C1654   1.417       .  A
C1649      H1656   1.085       .  S
C1650      C1651   1.424       .  A
C1651      C1658   1.529       .  S
C1651      C1652   1.407       .  A
C1652      C1653   1.422       .  A
C1652      H1657   1.071       .  S
C1653      C1654   1.451       .  A
C1654      C1655   1.532       .  S
C1655      F1659   1.386       .  S
C1655      F1660   1.380       .  S
C1655      F1661   1.368       .  S
C1658      F1662   1.381       .  S
C1658      F1663   1.382       .  S
C1658      F1664   1.384       .  S
C1665      C1666   1.394       .  A
C1665      C1670   1.421       .  A
C1665      H1672   1.082       .  S
C1666      C1667   1.404       .  A
C1667      C1674   1.520       .  S
C1667      C1668   1.409       .  A
C1668      C1669   1.432       .  A
C1668      H1673   1.073       .  S
C1669      C1670   1.460       .  A
C1670      C1671   1.536       .  S
C1671      F1675   1.386       .  S
C1671      F1676   1.367       .  S
C1671      F1677   1.375       .  S
C1674      F1678   1.383       .  S
C1674      F1679   1.383       .  S
C1674      F1680   1.385       .  S
O1681     Ni1687   1.914       .  S
O1681      C1702   1.268       .  A
O1682     Ni1705   1.921       .  S
O1682      C1691   1.273       .  A
O1683     Ni1687   1.897       .  S
O1683     Ni1705   1.900       .  S
O1683     Ni1699   1.922       .  S
O1683      H1706   0.966       .  S
C1684      O1701   1.286       .  A
C1684      O1693   1.274       .  A
O1685     Ni1704   1.925       .  S
O1685      C1691   1.270       .  A
O1686     Ni1704   1.909       .  S
O1686      C1688   1.267       .  A
Ni1687     O1690   1.915       .  S
Ni1687     O1692   1.913       .  S
C1688      O1698   1.272       .  A
C1688      C2194   1.480       .  S
O1689     Ni1705   1.925       .  S
O1689      C1695   1.282       .  A
O1690      C1695   1.273       .  A
C1691      C2226   1.477       .  S
O1692      C1694   1.270       .  A
O1693     Ni1704   1.914       .  S
C1694      O1700   1.276       .  A
C1694      C2178   1.489       .  S
C1695      C2210   1.499       .  S
H1696      O1697   0.965       .  S
O1697     Ni1705   1.918       .  S
O1697     Ni1699   1.904       .  S
O1697     Ni1704   1.891       .  S
O1698     Ni1699   1.936       .  S
Ni1699     O1703   1.914       .  S
Ni1699     O1701   1.951       .  S
O1700     Ni1705   1.947       .  S
C1702      O1703   1.269       .  A
C1702      C2146   1.470       .  S
C1707      C2114   1.563       .  S
C1707      C2133   1.573       .  S
C1707      C2197   1.606       .  S
C1707      C2213   1.613       .  S
C1708      C2165   1.627   1_554  S
C1708      C2181   1.621   1_554  S
O1709     Ni1715   1.932       .  S
O1709      C1730   1.274       .  A
O1710     Ni1733   1.931       .  S
O1710      C1719   1.273       .  A
O1711     Ni1715   1.896       .  S
O1711     Ni1733   1.913       .  S
O1711     Ni1727   1.927       .  S
O1711      H1734   0.966       .  S
C1712      O1729   1.286       .  A
C1712      O1721   1.270       .  A
C1712      C2021   1.502       .  S
O1713     Ni1732   1.897       .  S
O1713      C1719   1.268       .  A
O1714     Ni1732   1.923       .  S
O1714      C1716   1.270       .  A
Ni1715     O1718   1.934       .  S
Ni1715     O1720   1.905       .  S
C1716      O1726   1.273       .  A
C1716      C2053   1.495       .  S
O1717     Ni1733   1.938       .  S
O1717      C1723   1.278       .  A
O1718      C1723   1.279       .  A
C1719      C2085   1.487       .  S
O1720      C1722   1.269       .  A
O1721     Ni1732   1.906       .  S
C1722      O1728   1.279       .  A
C1722      C2037   1.485       .  S
H1724      O1725   0.966       .  S
O1725     Ni1733   1.933       .  S
O1725     Ni1727   1.915       .  S
O1725     Ni1732   1.898       .  S
O1726     Ni1727   1.926       .  S
Ni1727     O1731   1.929       .  S
Ni1727     O1729   1.968       .  S
O1728     Ni1733   1.952       .  S
C1730      O1731   1.274       .  A
C1730      C2101   1.488       .  S
C1735      C1986   1.589       .  S
C1735      C2002   1.604       .  S
C1735      C2050   1.587       .  S
C1735      C2066   1.621       .  S
C1736      C2005   1.582       .  S
C1736      C2018   1.619       .  S
C1736      C2034   1.606       .  S
C1736      C2149   1.575       .  S
O1737     Ni1743   1.924       .  S
O1737      C1758   1.269       .  A
O1738     Ni1761   1.896       .  S
O1738      C1747   1.263       .  A
O1739     Ni1743   1.914       .  S
O1739     Ni1761   1.902       .  S
O1739     Ni1755   1.905       .  S
O1739      H1762   0.967       .  S
C1740      O1757   1.267       .  A
C1740      O1749   1.276       .  A
C1740      C1922   1.493       .  S
O1741     Ni1760   1.917       .  S
O1741      C1747   1.267       .  A
O1742     Ni1760   1.906       .  S
O1742      C1744   1.263       .  A
Ni1743     O1746   1.937       .  S
Ni1743     O1748   1.916       .  S
C1744      O1754   1.272       .  A
C1744      C1970   1.475       .  S
O1745     Ni1761   1.901       .  S
O1745      C1751   1.264       .  A
O1746      C1751   1.274       .  A
C1747      C2117   1.460       .  S
O1748      C1750   1.270       .  A
O1749     Ni1760   1.939       .  S
C1750      O1756   1.280       .  A
C1750      C1938   1.487       .  S
H1752      O1753   0.968       .  S
O1753     Ni1761   1.909       .  S
O1753     Ni1755   1.915       .  S
O1753     Ni1760   1.916       .  S
O1754     Ni1755   1.941       .  S
Ni1755     O1759   1.888       .  S
Ni1755     O1757   1.911       .  S
O1756     Ni1761   1.953       .  S
C1758      O1759   1.264       .  A
C1758      C1906   1.481       .  S
C1763      C1890   1.605       .  S
C1763      C1957   1.570       .  S
C1763      C1973   1.589       .  S
C1763      C2229   1.611       .  S
C1764      C1925   1.567       .  S
C1764      C1941   1.610       .  S
O1765     Ni1771   1.941       .  S
O1765      C1786   1.278       .  A
O1766     Ni1789   1.924       .  S
O1766      C1775   1.268       .  A
O1767     Ni1771   1.905       .  S
O1767     Ni1789   1.906       .  S
O1767     Ni1783   1.898       .  S
O1767      H1790   0.964       .  S
C1768      O1785   1.280       .  A
C1768      O1777   1.268       .  A
C1768      C1810   1.482       .  S
O1769     Ni1788   1.898       .  S
O1769      C1775   1.261       .  A
O1770     Ni1788   1.893       .  S
O1770      C1772   1.264       .  A
Ni1771     O1774   1.928   1_565  S
Ni1771     O1776   1.941   1_565  S
C1772      O1782   1.276       .  A
C1772      C1845   1.502       .  S
O1773     Ni1789   1.899   1_545  S
O1773      C1779   1.273       .  A
O1774      C1779   1.280       .  A
C1775      C1989   1.464       .  S
O1776      C1778   1.275       .  A
O1777     Ni1788   1.891       .  S
C1778      O1784   1.273   1_545  A
H1780      O1781   0.964       .  S
O1781     Ni1789   1.908       .  S
O1781     Ni1783   1.925       .  S
O1781     Ni1788   1.896       .  S
O1782     Ni1783   1.952       .  S
Ni1783     O1787   1.919       .  S
Ni1783     O1785   1.938       .  S
O1784     Ni1789   1.943       .  S
C1786      O1787   1.272       .  A
C1786      C1877   1.488       .  S
C1791      C1794   1.623       .  S
C1791      C1842   1.593       .  S
C1791      C1861   1.571       .  S
C1791      C2082   1.585       .  S
C1792      C1797   1.605       .  S
C1792      C1813   1.586       .  S
C1792      C1826   1.606       .  S
C1792      C1909   1.576       .  S
C1793      C1794   1.421       .  A
C1793      C1798   1.410       .  A
C1793      H1800   1.071       .  S
C1794      C1795   1.468       .  A
C1795      C1802   1.531       .  S
C1795      C1796   1.428       .  A
C1796      C1797   1.406       .  A
C1796      H1801   1.074       .  S
C1797      C1798   1.429       .  A
C1798      C1799   1.525       .  S
C1799      F1803   1.385       .  S
C1799      F1804   1.372       .  S
C1799      F1805   1.382       .  S
C1802      F1806   1.375       .  S
C1802      F1807   1.378       .  S
C1802      F1808   1.387       .  S
C1809      C1810   1.392       .  A
C1809      C1814   1.416       .  A
C1809      H1816   1.082       .  S
C1810      C1811   1.409       .  A
C1811      C1818   1.522       .  S
C1811      C1812   1.401       .  A
C1812      C1813   1.423       .  A
C1812      H1817   1.073       .  S
C1813      C1814   1.455       .  A
C1814      C1815   1.531       .  S
C1815      F1819   1.386       .  S
C1815      F1820   1.380       .  S
C1815      F1821   1.373       .  S
C1818      F1822   1.384       .  S
C1818      F1823   1.384       .  S
C1818      F1824   1.378       .  S
C1825      C1826   1.424       .  A
C1825      C1830   1.423       .  A
C1825      H1832   1.076       .  S
C1826      C1827   1.442       .  A
C1827      C1834   1.521       .  S
C1827      C1828   1.413       .  A
C1828      C1829   1.397       .  A
C1828      H1833   1.085       .  S
C1829      C1830   1.415       .  A
C1831      F1835   1.385       .  S
C1831      F1836   1.382       .  S
C1831      F1837   1.383       .  S
C1834      F1838   1.372       .  S
C1834      F1839   1.381       .  S
C1834      F1840   1.386       .  S
C1841      C1846   1.389   1_554  A
C1841      H1848   1.058   1_554  S
C1842      C1843   1.441       .  A
C1843      C1850   1.513       .  S
C1843      C1844   1.434       .  A
C1844      H1849   1.083       .  S
C1845      C1846   1.415       .  A
C1846      C1847   1.533       .  S
C1847      F1851   1.386       .  S
C1847      F1852   1.383       .  S
C1847      F1853   1.383       .  S
C1850      F1854   1.377       .  S
C1850      F1855   1.376       .  S
C1850      F1856   1.385       .  S
C1857      C1858   1.390       .  A
C1857      C1862   1.402   1_556  A
C1857      H1864   1.086       .  S
C1859      C1860   1.406       .  A
C1860      C1861   1.418       .  A
C1860      H1865   1.078       .  S
C1862      C1863   1.538   1_554  S
C1863      F1867   1.386       .  S
C1863      F1868   1.368   1_556  S
C1863      F1869   1.381       .  S
C1866      F1870   1.383   1_545  S
C1866      F1871   1.382   1_545  S
C1866      F1872   1.385       .  S
C1873      C1874   1.435       .  A
C1873      C1878   1.404       .  A
C1873      H1880   1.062       .  S
C1875      C1882   1.519       .  S
C1876      C1877   1.398       .  A
C1877      C1878   1.395       .  A
C1878      C1879   1.521       .  S
C1879      F1883   1.380       .  S
C1879      F1884   1.383       .  S
C1879      F1885   1.383       .  S
C1882      F1886   1.383       .  S
C1882      F1887   1.360       .  S
C1882      F1888   1.385       .  S
C1889      C1890   1.416       .  A
C1889      C1894   1.407       .  A
C1889      H1896   1.069       .  S
C1890      C1891   1.449       .  A
C1891      C1898   1.534       .  S
C1891      C1892   1.421       .  A
C1892      C1893   1.418       .  A
C1892      H1897   1.073       .  S
C1893      C1894   1.443       .  A
C1894      C1895   1.538       .  S
C1895      F1899   1.383       .  S
C1895      F1900   1.386       .  S
C1895      F1901   1.370       .  S
C1898      F1902   1.372       .  S
C1898      F1903   1.386       .  S
C1898      F1904   1.382       .  S
C1905      C1906   1.399       .  A
C1905      C1910   1.411       .  A
C1905      H1912   1.078       .  S
C1906      C1907   1.413       .  A
C1907      C1914   1.525       .  S
C1907      C1908   1.399       .  A
C1908      C1909   1.421       .  A
C1908      H1913   1.070       .  S
C1909      C1910   1.444       .  A
C1910      C1911   1.531       .  S
C1911      F1915   1.380       .  S
C1911      F1916   1.371       .  S
C1911      F1917   1.385       .  S
C1914      F1918   1.384       .  S
C1914      F1919   1.383       .  S
C1914      F1920   1.385       .  S
C1921      C1922   1.394       .  A
C1921      C1926   1.402       .  A
C1921      H1928   1.083       .  S
C1922      C1923   1.415       .  A
C1923      C1930   1.516       .  S
C1923      C1924   1.415       .  A
C1924      C1925   1.424       .  A
C1924      H1929   1.077       .  S
C1925      C1926   1.455       .  A
C1926      C1927   1.538       .  S
C1927      F1931   1.386       .  S
C1927      F1932   1.373       .  S
C1930      F1934   1.381       .  S
C1930      F1935   1.383       .  S
C1930      F1936   1.385       .  S
C1937      C1942   1.407       .  A
C1937      H1944   1.087       .  S
C1939      C1940   1.419       .  A
C1940      C1941   1.429       .  A
C1940      H1945   1.081       .  S
C1941      C1942   1.468       .  A
C1942      C1943   1.542       .  S
C1943      F1947   1.365       .  S
C1943      F1948   1.388       .  S
C1943      F1949   1.382       .  S
C1946      F1950   1.384       .  S
C1946      F1951   1.382       .  S
C1953      C1954   1.389       .  A
C1953      C1958   1.404       .  A
C1953      H1960   1.084       .  S
C1954      C1955   1.409       .  A
C1955      C1962   1.516       .  S
C1955      C1956   1.406       .  A
C1956      C1957   1.424       .  A
C1956      H1961   1.072       .  S
C1957      C1958   1.452       .  A
C1958      C1959   1.525       .  S
C1959      F1963   1.386       .  S
C1959      F1964   1.377       .  S
C1959      F1965   1.373       .  S
C1962      F1967   1.383       .  S
C1962      F1968   1.385       .  S
C1969      C1970   1.385       .  A
C1969      C1974   1.406       .  A
C1969      H1976   1.087       .  S
C1970      C1971   1.402       .  A
C1971      C1978   1.512       .  S
C1971      C1972   1.405       .  A
C1972      C1973   1.432       .  A
C1972      H1977   1.083       .  S
C1973      C1974   1.461       .  A
C1974      C1975   1.536       .  S
C1975      F1979   1.387       .  S
C1975      F1980   1.360       .  S
C1975      F1981   1.382       .  S
C1978      F1982   1.380       .  S
C1978      F1983   1.384       .  S
C1978      F1984   1.384       .  S
C1985      C1986   1.422       .  A
C1985      C1990   1.390   1_655  A
C1985      H1992   1.071       .  S
C1986      C1987   1.450       .  A
C1987      C1994   1.527       .  S
C1987      C1988   1.420   1_655  A
C1988      C1989   1.399       .  A
C1988      H1993   1.084       .  S
C1989      C1990   1.403       .  A
C1990      C1991   1.525       .  S
C1991      F1995   1.383   1_556  S
C1991      F1996   1.382       .  S
C1991      F1997   1.384       .  S
C1994      F1998   1.370   1_565  S
C1994      F1999   1.373       .  S
C1994      F2000   1.386   1_565  S
C2001      C2002   1.416       .  A
C2001      C2006   1.424       .  A
C2001      H2008   1.062       .  S
C2002      C2003   1.450       .  A
C2003      C2010   1.539   1_565  S
C2003      C2004   1.408       .  A
C2004      C2005   1.413       .  A
C2004      H2009   1.073       .  S
C2005      C2006   1.445       .  A
C2006      C2007   1.543       .  S
C2007      F2011   1.384       .  S
C2007      F2012   1.368       .  S
C2007      F2013   1.379       .  S
C2010      F2014   1.363       .  S
C2010      F2015   1.380       .  S
C2010      F2016   1.387       .  S
C2017      C2018   1.414       .  A
C2017      C2022   1.395       .  A
C2017      H2024   1.065       .  S
C2018      C2019   1.462       .  A
C2019      C2026   1.532       .  S
C2020      C2021   1.400       .  A
C2020      H2025   1.083       .  S
C2022      C2023   1.524       .  S
C2023      F2027   1.385       .  S
C2023      F2029   1.380       .  S
C2026      F2030   1.369       .  S
C2026      F2031   1.383       .  S
C2026      F2032   1.386   1_565  S
C2033      C2034   1.426       .  A
C2033      C2038   1.400       .  A
C2033      H2040   1.075       .  S
C2034      C2035   1.454       .  A
C2035      C2042   1.522       .  S
C2035      C2036   1.423       .  A
C2036      C2037   1.394       .  A
C2036      H2041   1.083       .  S
C2037      C2038   1.408       .  A
C2038      C2039   1.523       .  S
C2039      F2043   1.385       .  S
C2039      F2044   1.382       .  S
C2039      F2045   1.378       .  S
C2042      F2046   1.376       .  S
C2042      F2047   1.368       .  S
C2042      F2048   1.386       .  S
C2049      C2050   1.426   1_545  A
C2049      H2056   1.078       .  S
C2050      C2051   1.451       .  A
C2051      C2058   1.524       .  S
C2052      H2057   1.085       .  S
C2055      F2059   1.385       .  S
C2055      F2060   1.382       .  S
C2058      F2062   1.381   1_556  S
C2058      F2063   1.372       .  S
C2058      F2064   1.383       .  S
C2065      C2066   1.428       .  A
C2065      C2070   1.405   1_556  A
C2065      H2072   1.081   1_556  S
C2066      C2067   1.443       .  A
C2067      C2074   1.526       .  S
C2067      C2068   1.416       .  A
C2068      C2069   1.401       .  A
C2068      H2073   1.085       .  S
C2069      C2070   1.416   1_556  A
C2071      F2075   1.384       .  S
C2071      F2076   1.382       .  S
C2071      F2077   1.382       .  S
C2074      F2078   1.376       .  S
C2074      F2079   1.379       .  S
C2074      F2080   1.386       .  S
C2081      C2082   1.427       .  A
C2081      C2086   1.418       .  A
C2081      H2088   1.075       .  S
C2082      C2083   1.459       .  A
C2083      C2084   1.398       .  A
C2084      C2085   1.391   1_455  A
C2084      H2089   1.078   1_455  S
C2085      C2086   1.403   1_655  A
C2086      C2087   1.517       .  S
C2087      F2091   1.385       .  S
C2087      F2092   1.384   1_455  S
C2087      F2093   1.380   1_455  S
C2090      F2094   1.368   1_554  S
C2090      F2095   1.386   1_554  S
C2090      F2096   1.383       .  S
C2097      C2102   1.413       .  A
C2097      H2104   1.082       .  S
C2098      C2099   1.474       .  A
C2099      C2106   1.546       .  S
C2099      C2100   1.414       .  A
C2100      C2101   1.384       .  A
C2100      H2105   1.087       .  S
C2102      C2103   1.516       .  S
C2103      F2107   1.384       .  S
C2103      F2108   1.383       .  S
C2103      F2109   1.383       .  S
C2106      F2110   1.382       .  S
C2106      F2111   1.371       .  S
C2106      F2112   1.387       .  S
C2113      C2114   1.422       .  A
C2113      C2118   1.396       .  A
C2113      H2120   1.085       .  S
C2114      C2115   1.463       .  A
C2115      C2122   1.540       .  S
C2115      C2116   1.411       .  A
C2116      C2117   1.389       .  A
C2116      H2121   1.086       .  S
C2117      C2118   1.407       .  A
C2118      C2119   1.523       .  S
C2119      F2123   1.383       .  S
C2119      F2124   1.382       .  S
C2119      F2125   1.381       .  S
C2122      F2126   1.386       .  S
C2122      F2127   1.371       .  S
C2122      F2128   1.384       .  S
C2129      C2130   1.425       .  A
C2129      C2134   1.412       .  A
C2129      H2136   1.075       .  S
C2130      C2131   1.438       .  A
C2131      C2132   1.404       .  A
C2132      C2133   1.418       .  A
C2132      H2137   1.067       .  S
C2133      C2134   1.439       .  A
C2134      C2135   1.539       .  S
C2135      F2139   1.372       .  S
C2135      F2140   1.376       .  S
C2135      F2141   1.386       .  S
C2138      F2142   1.376   1_554  S
C2138      F2143   1.373       .  S
C2145      C2146   1.386       .  A
C2145      C2150   1.410       .  A
C2145      H2152   1.087       .  S
C2146      C2147   1.403       .  A
C2147      C2154   1.520       .  S
C2147      C2148   1.403       .  A
C2148      C2149   1.426       .  A
C2148      H2153   1.076       .  S
C2149      C2150   1.460       .  A
C2150      C2151   1.531       .  S
C2151      F2155   1.387       .  S
C2151      F2156   1.381       .  S
C2151      F2157   1.360       .  S
C2154      F2158   1.382       .  S
C2154      F2159   1.384       .  S
C2154      F2160   1.385       .  S
C2161      C2162   1.405       .  A
C2161      C2166   1.429       .  A
C2162      C2163   1.419       .  A
C2163      C2170   1.531       .  S
C2163      C2164   1.399       .  A
C2164      C2165   1.426       .  A
C2164      H2169   1.069       .  S
C2165      C2166   1.456       .  A
C2166      C2167   1.529       .  S
C2167      F2171   1.387       .  S
C2167      F2172   1.374   1_556  S
C2167      F2173   1.381       .  S
C2170      F2175   1.383       .  S
C2170      F2176   1.385       .  S
C2177      C2178   1.392       .  A
C2177      C2182   1.421       .  A
C2177      H2184   1.084       .  S
C2178      C2179   1.402       .  A
C2179      C2186   1.518       .  S
C2179      C2180   1.405       .  A
C2180      C2181   1.431       .  A
C2180      H2185   1.066       .  S
C2181      C2182   1.462       .  A
C2182      C2183   1.522   1_556  S
C2186      F2190   1.383       .  S
C2186      F2191   1.386       .  S
C2186      F2192   1.375       .  S
C2193      C2198   1.417       .  A
C2195      C2196   1.395       .  A
C2196      C2197   1.427       .  A
C2196      H2201   1.067       .  S
C2197      C2198   1.461       .  A
C2198      C2199   1.526       .  S
C2199      F2203   1.380       .  S
C2199      F2204   1.386       .  S
C2199      F2205   1.365       .  S
C2202      F2207   1.379       .  S
C2209      C2210   1.399       .  A
C2209      C2214   1.411       .  A
C2209      H2216   1.085       .  S
C2210      C2211   1.421       .  A
C2211      C2218   1.529       .  S
C2211      C2212   1.403       .  A
C2212      C2213   1.424       .  A
C2212      H2217   1.075       .  S
C2213      C2214   1.454       .  A
C2214      C2215   1.536       .  S
C2215      F2219   1.386       .  S
C2215      F2220   1.379       .  S
C2215      F2221   1.365       .  S
C2218      F2222   1.383       .  S
C2218      F2223   1.381       .  S
C2218      F2224   1.383       .  S
C2225      C2226   1.390       .  A
C2225      C2230   1.415       .  A
C2225      H2232   1.083       .  S
C2226      C2227   1.402       .  A
C2227      C2234   1.518       .  S
C2227      C2228   1.408       .  A
C2228      C2229   1.428       .  A
C2228      H2233   1.075       .  S
C2229      C2230   1.460       .  A
C2230      C2231   1.535       .  S
C2231      F2235   1.366       .  S
C2231      F2236   1.376       .  S
C2231      F2237   1.385       .  S
C2234      F2238   1.384       .  S
C2234      F2239   1.383       .  S
C2234      F2240   1.384       .  S
