geometry optimzed in LAMMPS
_audit_creation_date              2020-11-30 
_audit_creation_method            'lammps2cif' 
_symmetry_space_group_name_H-M    'P1' 
_symmetry_Int_Tables_number       1 
_symmetry_cell_setting            triclinic 
loop_ 
_symmetry_equiv_pos_as_xyz 
  x,y,z 
_cell_length_a                    48.32583385 
_cell_length_b                    48.28813296359634 
_cell_length_c                    43.64295657090437 
_cell_angle_alpha                 87.88329128584316 
_cell_angle_beta                  94.6713572520443 
_cell_angle_gamma                 109.25039118816099 
loop_ 
_atom_site_label 
_atom_site_type_symbol 
_atom_site_fract_x 
_atom_site_fract_y 
_atom_site_fract_z 
_atom_site_charge 
O1          O  0.03177975  0.26044044  0.45721255    -0.74900
O2          O  0.03080655  0.25922008  0.04487789    -0.74900
O3          O  0.03126931  0.22043602  0.00187131    -0.75000
O4          O  0.03178641  0.30005088  0.49971219    -0.75000
O5          O  0.48279134  0.28325514  0.49535241    -0.75000
O6          O  0.48241719  0.20326825  0.99891449    -0.74900
O7          O  0.48192291  0.24248597  0.04148687    -0.74900
O8          O  0.48284886  0.24325655  0.45377455    -0.75000
Ni9        Ni  0.03379974  0.26094020  0.50130564     1.25400
Ni10       Ni  0.47979517  0.24202266  0.99742671     1.25400
C11         C  0.50722628  0.25199183  0.44093193     0.87300
C12         C  0.50649203  0.25069886  0.05776347     0.87200
C13         C  0.00718865  0.19876771  0.00098649     0.87200
C14         C  0.00706038  0.30465685  0.49682063     0.87400
O15         O  0.47972085  0.20362800  0.24830208    -0.74900
O16         O  0.47902065  0.28261619  0.24662816    -0.74900
O17         O  0.47928666  0.24375856  0.20351753    -0.75000
O18         O  0.47958649  0.24242134  0.29139957    -0.75000
O19         O  0.02851285  0.25963935  0.29485130    -0.75000
O20         O  0.02816914  0.25989614  0.20700404    -0.74900
O21         O  0.02789610  0.29945038  0.24957857    -0.74900
O22         O  0.02859197  0.22019747  0.25239581    -0.75000
Ni23       Ni  0.47768545  0.24255998  0.24731685     1.25400
Ni24       Ni  0.03004211  0.26039526  0.25106202     1.25400
C25         C  0.00428330  0.19875488  0.25091093     0.87300
C26         C  0.00321821  0.30415049  0.24787826     0.87200
C27         C  0.00363958  0.25182624  0.19067122     0.87200
C28         C  0.00413060  0.25074092  0.30768933     0.87400
O29         O  0.42042894  0.46753488  0.48777845    -0.81400
O30         O  0.05713826  0.48608646  0.49545292    -0.66100
O31         O  0.47662946  0.47571026  0.01012081    -1.12700
C32         C  0.50826973  0.07872990  0.00971140     1.05500
O33         O  0.08087685  0.03035188  0.01534579    -0.79300
O34         O  0.03872516  0.02627548  0.05550758    -0.66800
Ni35       Ni  0.44900805  0.44854069  0.48372520     1.34900
C36         C  0.01294252  0.02015174  0.06435790     0.84300
O37         O  0.01233437  0.44031703  0.50967280    -0.79800
O38         O  0.47276051  0.42410084  0.47769033    -0.90100
C39         C  0.07897999  0.50563031  0.00436169     0.83800
O40         O  0.46293840  0.47227935  0.44888635    -0.68300
O41         O  0.02909449  0.07417355  0.02657374    -0.87600
C42         C  0.98893131  0.47879944  0.44056486     0.84700
C43         C  0.99447536  0.42002658  0.49335552     1.06200
H44         H  0.02399155  0.02718018  0.47339767     0.38000
O45         O  0.02086105  0.02150366  0.49462760    -1.10200
O46         O  0.49147344  0.02275440  0.04666463    -0.66900
Ni47       Ni  0.48322149  0.01735462  0.00249988     1.26300
O48         O  0.00971766  0.47541764  0.45858167    -0.67100
O49         O  0.48891801  0.05805020  0.99516412    -0.79400
C50         C  0.41853749  0.99146467  0.49910686     0.84000
O51         O  0.44307782  0.01196269  0.00906731    -0.66600
Ni52       Ni  0.05242927  0.04950737  0.02028735     1.27400
Ni53       Ni  0.01747697  0.48083589  0.50254737     1.26100
H54         H  0.47312639  0.46984510  0.03125337     0.38600
O55         O  0.42147643  0.46945353  0.24220719    -0.81400
O56         O  0.05880735  0.48807235  0.24393661    -0.66100
O57         O  0.47994744  0.47841118  0.26117133    -1.12700
C58         C  0.51048358  0.08041405  0.25976765     1.05500
O59         O  0.08174080  0.03021916  0.26988583    -0.79300
O60         O  0.03785947  0.02629891  0.30709163    -0.66800
Ni61       Ni  0.44984824  0.45054895  0.23625716     1.34900
C62         C  0.01176844  0.02079562  0.31479793     0.84300
O63         O  0.01369830  0.44194678  0.25919606    -0.79800
O64         O  0.47310715  0.42613720  0.22856598    -0.90100
C65         C  0.08174675  0.50746941  0.25529571     0.83800
O66         O  0.46242705  0.47390041  0.20085684    -0.68300
O67         O  0.03026439  0.07516092  0.27771151    -0.87600
C68         C  0.98788168  0.48011646  0.19121109     0.84700
C69         C  0.99435549  0.42146082  0.24446923     1.06200
H70         H  0.02900219  0.03035471  0.22445810     0.38000
O71         O  0.02496617  0.02386071  0.24532927    -1.10200
O72         O  0.49166307  0.02459895  0.29603538    -0.66900
Ni73       Ni  0.48523666  0.01929968  0.25186602     1.26300
O74         O  0.00968547  0.47771704  0.20850848    -0.67100
O75         O  0.49141626  0.06005092  0.24446952    -0.79400
C76         C  0.42214767  0.99305860  0.25024668     0.84000
O77         O  0.44517963  0.01434073  0.25750940    -0.66600
Ni78       Ni  0.05357909  0.05012523  0.27287748     1.27400
Ni79       Ni  0.01922433  0.48263975  0.25245150     1.26100
H80         H  0.47733929  0.47293978  0.28250154     0.38600
O81         O  0.29603483  0.02353348  0.49735656    -0.74900
O82         O  0.21642527  0.02286236  0.49319531    -0.74900
O83         O  0.25963461  0.02401992  0.03884452    -0.75000
O84         O  0.25508886  0.02367178  0.45115036    -0.75000
O85         O  0.23927741  0.47276094  0.45174910    -0.75000
O86         O  0.24016879  0.47282247  0.03946843    -0.74900
O87         O  0.19964022  0.47297921  0.99307998    -0.74900
O88         O  0.27944278  0.47375638  0.99800254    -0.75000
Ni89       Ni  0.25675384  0.02492365  0.49519126     1.25400
Ni90       Ni  0.23898314  0.47161658  0.99540878     1.25400
C91         C  0.30127660  0.49743742  0.49890005     0.87300
C92         C  0.19450989  0.49734991  0.99331736     0.87200
C93         C  0.24829638  0.49704002  0.05411272     0.87200
C94         C  0.24655620  0.49720907  0.43695067     0.87400
O95         O  0.22141662  0.02618079  0.24381883    -0.74900
O96         O  0.30072170  0.02560327  0.24900879    -0.74900
O97         O  0.26066663  0.02665618  0.20226970    -0.75000
O98         O  0.26155029  0.02539302  0.29028726    -0.75000
O99         O  0.24383901  0.47510393  0.29041210    -0.75000
O100        O  0.24218283  0.47595553  0.20244726    -0.74900
O101        O  0.28295151  0.47590911  0.24913512    -0.74900
O102        O  0.20314292  0.47546419  0.24414839    -0.75000
Ni103      Ni  0.26166206  0.02768670  0.24630230     1.25400
Ni104      Ni  0.24247654  0.47387059  0.24647007     1.25400
C105        C  0.19809262  0.49990363  0.24384522     0.87300
C106        C  0.30412722  0.50040178  0.25002121     0.87200
C107        C  0.25014742  0.50046247  0.18774669     0.87200
C108        C  0.25210563  0.49938424  0.30492125     0.87400
C109        C  0.26021971  0.47968273  0.38975527    -0.26800
C110        C  0.24635858  0.49717565  0.40302516    -0.14900
C111        C  0.23640489  0.01830401  0.38322876     0.35800
C112        C  0.23988110  0.01884599  0.35157418    -0.26200
C113        C  0.25178337  0.49894227  0.33879969    -0.15500
C114        C  0.26357333  0.48062752  0.35805546     0.36800
N115        N  0.27991084  0.46353020  0.34669920    -0.89700
H116        H  0.26966422  0.46595892  0.40438432     0.18000
H117        H  0.23121657  0.03305303  0.33677068     0.18000
N118        N  0.22076818  0.03624844  0.39423110    -0.88800
H119        H  0.30081591  0.47031754  0.35826646     0.35300
H120        H  0.28357805  0.46785103  0.32353990     0.40400
H121        H  0.21670134  0.03204272  0.41731242     0.40000
H122        H  0.19998380  0.03010915  0.38240079     0.34900
C123        C  0.26981486  0.02474956  0.10415661    -0.26800
C124        C  0.24842737  0.49712027  0.08832415    -0.14900
C125        C  0.23150840  0.47291906  0.10569395     0.35800
C126        C  0.23239168  0.47483115  0.13774539    -0.26200
C127        C  0.24967834  0.50034404  0.15351039    -0.15500
C128        C  0.27070042  0.02636477  0.13627635     0.36800
N129        N  0.29104326  0.05198232  0.15078819    -0.89700
H130        H  0.28411506  0.04301918  0.09170999     0.18000
H131        H  0.21916517  0.45605644  0.15041506     0.18000
N132        N  0.21267808  0.44629223  0.09166370    -0.88800
H133        H  0.30497130  0.04551574  0.16695770     0.35300
H134        H  0.27933815  0.06291433  0.16183409     0.40400
H135        H  0.22547120  0.43648666  0.08074159     0.40000
H136        H  0.19779162  0.45129565  0.07549832     0.34900
C137        C  0.11419278  0.47853740  0.24383431    -0.26800
C138        C  0.11122431  0.50559210  0.25063155    -0.14900
C139        C  0.13799546  0.03262817  0.25125706     0.35800
C140        C  0.16573499  0.03006094  0.24833373    -0.26200
C141        C  0.16758793  0.50080772  0.24463474    -0.15500
C142        C  0.14188414  0.47582244  0.24086634     0.36800
N143        N  0.14291880  0.44743679  0.23395413    -0.89700
H144        H  0.09488337  0.45912836  0.24141334     0.18000
H145        H  0.18473434  0.04980083  0.24932454     0.18000
N146        N  0.13541601  0.06116830  0.25480399    -0.88800
H147        H  0.15446570  0.44038735  0.25215567     0.35300
H148        H  0.15370985  0.44901255  0.21382415     0.40400
H149        H  0.12357173  0.06552661  0.23515795     0.40000
H150        H  0.15604400  0.07746797  0.25565131     0.34900
C151        C  0.34090550  0.47610163  0.26680014    -0.26800
C152        C  0.33607767  0.00034161  0.25203193    -0.14900
C153        C  0.35964456  0.02386814  0.24149039     0.35800
C154        C  0.38788972  0.02151828  0.24261606    -0.26200
C155        C  0.39318291  0.99604927  0.25402406    -0.15500
C156        C  0.36936831  0.47436542  0.26936834     0.36800
N157        N  0.37397533  0.44964901  0.28579098    -0.89700
H158        H  0.32337584  0.45846571  0.27642384     0.18000
H159        H  0.40553564  0.03925600  0.23328957     0.18000
N160        N  0.35486065  0.04969842  0.22840380    -0.88800
H161        H  0.36722163  0.44964888  0.30795700     0.35300
H162        H  0.39622843  0.45191786  0.28899581     0.40400
H163        H  0.36122175  0.05213266  0.20585821     0.40000
H164        H  0.36850585  0.06775903  0.24096666     0.34900
C165        C  0.11272128  0.47634940  0.50122385    -0.26800
C166        C  0.10785434  0.50286878  0.99950426    -0.14900
C167        C  0.13400401  0.02954442  0.99002421     0.35800
C168        C  0.16176688  0.02683475  0.98780588    -0.26200
C169        C  0.16395616  0.49786757  0.99404923    -0.15500
C170        C  0.14044607  0.47321292  0.49905666     0.36800
N171        N  0.14361658  0.44467316  0.50273722    -0.89700
H172        H  0.09403359  0.45717471  0.50569336     0.18000
H173        H  0.17986371  0.04618835  0.98235358     0.19600
N174        N  0.12978978  0.05748373  0.98443873    -0.88800
H175        H  0.12319118  0.42852245  0.50491093     0.35300
H176        H  0.15595747  0.44456230  0.52353610     0.40400
H177        H  0.11533204  0.05546030  0.96483323     0.40000
H178        H  0.14948718  0.07358354  0.97935909     0.34900
C179        C  0.38484510  0.02116237  0.49610121    -0.26800
C180        C  0.38901453  0.99392817  0.50138790    -0.14900
C181        C  0.36455799  0.46920949  0.01053123     0.35800
C182        C  0.33659992  0.47179619  0.00993271    -0.26200
C183        C  0.33207973  0.49697467  0.50131484    -0.15500
C184        C  0.35667024  0.02393698  0.49567279     0.36800
N185        N  0.35314031  0.05206687  0.48940787    -0.89700
H186        H  0.40354272  0.04021559  0.49144631     0.18000
H187        H  0.31860174  0.45287980  0.01664577     0.18000
N188        N  0.36778953  0.44177047  0.02058296    -0.88800
H189        H  0.37311512  0.06769026  0.48427981     0.35300
H190        H  0.34744593  0.05898856  0.50968683     0.40400
H191        H  0.38429018  0.44568869  0.03850231     0.40000
H192        H  0.37375677  0.43211253  0.00231169     0.34900
C193        C  0.47143343  0.48948293  0.38766447    -0.26800
C194        C  0.99505500  0.49002625  0.40890995    -0.14900
C195        C  0.02341072  0.00008387  0.39816254     0.35800
C196        C  0.02827058  0.01021449  0.36800684    -0.26200
C197        C  0.00493001  0.01025239  0.34661398    -0.15500
C198        C  0.47584093  0.99989542  0.35604871     0.36800
N199        N  0.45116615  0.99935021  0.33498641    -0.89700
H200        H  0.44913225  0.48060278  0.39452640     0.18000
H201        H  0.05071659  0.01821379  0.36144232     0.18000
N202        N  0.04893903  0.50398855  0.42076418    -0.88800
H203        H  0.43160656  0.49132361  0.34749755     0.35300
H204        H  0.44884957  0.98327715  0.31868014     0.40400
H205        H  0.06214850  0.02271673  0.42063265     0.40000
H206        H  0.05951375  0.98855098  0.40986586     0.34900
C207        C  0.47817957  0.50659938  0.10870392    -0.26800
C208        C  0.00769840  0.01045288  0.09643044    -0.14900
C209        C  0.02048435  0.99059520  0.11131230     0.35800
C210        C  0.01446034  0.98169544  0.14154042    -0.26200
C211        C  0.99272353  0.48969865  0.15877452    -0.15500
C212        C  0.47159139  0.49717065  0.13870496     0.36800
N213        N  0.44338598  0.49587785  0.14787755    -0.89700
H214        H  0.46164731  0.51223502  0.09393179     0.18000
H215        H  0.02429375  0.96636373  0.15261107     0.18000
N216        N  0.03869432  0.97816091  0.09601973    -0.88800
H217        H  0.44633041  0.50945145  0.16682351     0.35300
H218        H  0.43163878  0.47422639  0.15368189     0.40400
H219        H  0.05777145  0.99487220  0.09049280     0.40000
H220        H  0.02717914  0.96821778  0.07580411     0.34900
C221        C  0.47494828  0.33871645  0.23900334    -0.26800
C222        C  0.00208760  0.33463724  0.24709043    -0.14900
C223        C  0.02703144  0.35956599  0.25429738     0.35800
C224        C  0.02411572  0.38770545  0.25294556    -0.26200
C225        C  0.99686059  0.39157644  0.24486633    -0.15500
C226        C  0.47208034  0.36663195  0.23791586     0.36800
N227        N  0.44364275  0.36930722  0.23037259    -0.89700
H228        H  0.45551643  0.32004480  0.23345586     0.18000
H229        H  0.04325071  0.40670909  0.25837445     0.18000
N230        N  0.05512386  0.35639204  0.26329784    -0.88800
H231        H  0.42937482  0.35691942  0.24632521     0.35300
H232        H  0.43598153  0.36029463  0.20863625     0.40400
H233        H  0.05340156  0.34549707  0.28457241     0.40000
H234        H  0.07122266  0.37690442  0.26681472     0.34900
C235        C  0.03159791  0.16372152  0.26256500    -0.26800
C236        C  0.00494378  0.16811893  0.25282770    -0.14900
C237        C  0.47993553  0.14332211  0.24528629     0.35800
C238        C  0.48245389  0.11506392  0.24750453    -0.26200
C239        C  0.50905964  0.11074869  0.25781981    -0.15500
C240        C  0.03395084  0.13570254  0.26535576     0.36800
N241        N  0.06222673  0.13366053  0.27528838    -0.89700
H242        H  0.05101697  0.18230042  0.26847324     0.18000
H243        H  0.46328700  0.09622353  0.24162661     0.18000
N244        N  0.45216368  0.14668925  0.23507190    -0.88800
H245        H  0.06864578  0.12222750  0.25886708     0.35300
H246        H  0.06092574  0.12261876  0.29643994     0.40400
H247        H  0.44390086  0.15299296  0.25407798     0.40000
H248        H  0.43688690  0.12656140  0.22813285     0.34900
C249        C  0.48241147  0.23289781  0.39004130    -0.26800
C250        C  0.00681885  0.25207724  0.40684467    -0.14900
C251        C  0.03024077  0.27088782  0.39082265     0.35800
C252        C  0.02892895  0.26964737  0.35858468    -0.26200
C253        C  0.00454097  0.25047586  0.34178018    -0.15500
C254        C  0.48107658  0.23169410  0.35778598     0.36800
N255        N  0.45623868  0.21106872  0.34140680    -0.89700
H256        H  0.46446530  0.21830109  0.40218364     0.18000
H257        H  0.04685799  0.28428204  0.34644876     0.18000
N258        N  0.05499031  0.29165432  0.40716919    -0.88800
H259        H  0.44079245  0.19921764  0.35656959     0.35300
H260        H  0.46376715  0.19584947  0.33129422     0.40400
H261        H  0.04734280  0.30683481  0.41718671     0.40000
H262        H  0.07041705  0.30352999  0.39199965     0.34900
C263        C  0.02865972  0.24913565  0.14374745    -0.26800
C264        C  0.00374228  0.25139681  0.15659655    -0.14900
C265        C  0.47981295  0.25323486  0.13649898     0.35800
C266        C  0.48146714  0.25293235  0.10467157    -0.26200
C267        C  0.00640404  0.25080030  0.09182572    -0.15500
C268        C  0.03024867  0.24869494  0.11188483     0.36800
N269        N  0.05603751  0.24524842  0.10085507    -0.89700
H270        H  0.04709441  0.24733372  0.15860946     0.18000
H271        H  0.46301296  0.25470401  0.08982118     0.18000
N272        N  0.45377193  0.25615774  0.14744473    -0.88800
H273        H  0.06694015  0.26400211  0.08835659     0.35300
H274        H  0.04971499  0.22694715  0.08658988     0.40400
H275        H  0.45972458  0.27444795  0.16168989     0.40000
H276        H  0.44310137  0.23727572  0.15988821     0.34900
C277        C  0.48398119  0.34037725  0.47496161    -0.26800
C278        C  0.00598921  0.33492155  0.49469052    -0.14900
C279        C  0.02568676  0.35801173  0.51238117     0.35800
C280        C  0.02199654  0.38578192  0.51095350    -0.26200
C281        C  0.99919437  0.39107324  0.49199004    -0.15500
C282        C  0.48068536  0.36819056  0.47283908     0.36800
N283        N  0.45854024  0.37302743  0.45128467    -0.89700
H284        H  0.46935860  0.32277806  0.46080292     0.18000
H285        H  0.03444879  0.40214359  0.02602426     0.18000
N286        N  0.04631736  0.35189144  0.03327658    -0.88800
H287        H  0.44627065  0.35365841  0.43990961     0.35300
H288        H  0.46939733  0.38758568  0.43440297     0.40400
H289        H  0.03657796  0.33709749  0.05050455     0.40000
H290        H  0.05916449  0.37125019  0.04431952     0.34900
C291        C  0.48131994  0.14459164  0.99790719    -0.26800
C292        C  0.50778352  0.16809788  0.00274495    -0.14900
C293        C  0.03408493  0.16173822  0.01002771     0.35800
C294        C  0.03343537  0.13253134  0.01232916    -0.26200
C295        C  0.50705764  0.10907672  0.00754583    -0.15500
C296        C  0.48062458  0.11521110  0.00044395     0.36800
N297        N  0.45312852  0.09172068  0.99645846    -0.89700
H298        H  0.46093260  0.14907246  0.99242659     0.18000
H299        H  0.05395981  0.12825128  0.01767848     0.18000
N300        N  0.06160258  0.18474244  0.01547543    -0.88800
H301        H  0.43582772  0.09996130  0.99105950     0.35300
H302        H  0.44916625  0.08079600  0.01761472     0.40400
H303        H  0.07601849  0.18252581  0.99985577     0.40000
H304        H  0.07027910  0.18193807  0.03766227     0.34900
O305        O  0.03004820  0.26046211  0.95703359    -0.74900
O306        O  0.03234611  0.26034149  0.54511764    -0.74900
O307        O  0.03225737  0.22067065  0.50274458    -0.75000
O308        O  0.02954853  0.29931242  0.00016623    -0.75000
O309        O  0.48058183  0.28192122  0.99605443    -0.75000
O310        O  0.48338684  0.20423276  0.49981802    -0.74900
O311        O  0.48345242  0.24439678  0.54157551    -0.74900
O312        O  0.48116741  0.24281823  0.95365962    -0.75000
Ni313      Ni  0.03216492  0.26045600  0.00108480     1.25400
Ni314      Ni  0.48140414  0.24320704  0.49753082     1.25400
C315        C  0.50551632  0.25188291  0.94078159     0.87300
C316        C  0.50798433  0.25242416  0.55793045     0.87200
C317        C  0.00793929  0.19928227  0.50202741     0.87200
C318        C  0.00465056  0.30355923  0.99765425     0.87400
O319        O  0.47944418  0.20348507  0.74802903    -0.74900
O320        O  0.47773842  0.28206914  0.74625898    -0.74900
O321        O  0.47913117  0.24368698  0.70321922    -0.75000
O322        O  0.47829824  0.24189337  0.79104617    -0.75000
O323        O  0.02719282  0.25924421  0.79505932    -0.75000
O324        O  0.02800732  0.26046209  0.70741459    -0.74900
O325        O  0.02663427  0.29932640  0.75017280    -0.74900
O326        O  0.02828101  0.22042468  0.75252022    -0.75000
Ni327      Ni  0.47692738  0.24219797  0.74696983     1.25400
Ni328      Ni  0.02927355  0.26047421  0.75141797     1.25400
C329        C  0.00409549  0.19883959  0.75086396     0.87300
C330        C  0.00179989  0.30373013  0.74798249     0.87200
C331        C  0.00368614  0.25232415  0.69074885     0.87200
C332        C  0.00267122  0.25024337  0.80760353     0.87400
O333        O  0.41923162  0.46774002  0.98764521    -0.81400
O334        O  0.05586192  0.48495372  0.99600085    -0.66100
O335        O  0.47789901  0.47603593  0.51006419    -1.12700
C336        C  0.50677517  0.07846951  0.51008056     1.05500
O337        O  0.07902294  0.02991774  0.51481947    -0.79300
O338        O  0.03707463  0.02560768  0.55527769    -0.66800
Ni339      Ni  0.44754361  0.44832599  0.98384935     1.34900
C340        C  0.01137445  0.01946568  0.56435000     0.84300
O341        O  0.01059400  0.43952129  0.01002020    -0.79800
O342        O  0.47097109  0.42350522  0.97808363    -0.90100
C343        C  0.08017416  0.50680028  0.50389281     0.83800
O344        O  0.46170405  0.47177904  0.94892012    -0.68300
O345        O  0.02740501  0.07358366  0.52693055    -0.87600
C346        C  0.98768107  0.47810766  0.94061186     0.84700
C347        C  0.99249344  0.41922593  0.99391521     1.06200
H348        H  0.02597352  0.02768301  0.97359058     0.38000
O349        O  0.02277749  0.02191365  0.99478716    -1.10200
O350        O  0.48990072  0.02221797  0.54672316    -0.66900
Ni351      Ni  0.48139088  0.01713034  0.50255073     1.26300
O352        O  0.00845659  0.47478730  0.95875017    -0.67100
O353        O  0.48724707  0.05796022  0.49547100    -0.79400
C354        C  0.42029595  0.99133432  0.99933279     0.84000
O355        O  0.44131553  0.01181794  0.50937048    -0.66600
Ni356      Ni  0.05063721  0.04900896  0.52013287     1.27400
Ni357      Ni  0.01617692  0.48010167  0.00280617     1.26100
H358        H  0.47450035  0.47013762  0.53120786     0.38600
O359        O  0.42026608  0.46957910  0.74056152    -0.81400
O360        O  0.05752176  0.48750647  0.74385248    -0.66100
O361        O  0.47848555  0.47801381  0.76035192    -1.12700
C362        C  0.51066981  0.08072739  0.75915525     1.05500
O363        O  0.08045103  0.02876748  0.76854180    -0.79300
O364        O  0.03785182  0.02677778  0.80656202    -0.66800
Ni365      Ni  0.44856678  0.45049220  0.73486841     1.34900
C366        C  0.01200970  0.02178984  0.81477031     0.84300
O367        O  0.01201244  0.44137945  0.75849523    -0.79800
O368        O  0.47171786  0.42586746  0.72741295    -0.90100
C369        C  0.08048304  0.50701053  0.75502425     0.83800
O370        O  0.46173405  0.47408901  0.69973084    -0.68300
O371        O  0.03083832  0.07552362  0.77648454    -0.87600
C372        C  0.98737128  0.48039154  0.69050971     0.84700
C373        C  0.99276783  0.42099297  0.74350573     1.06200
H374        H  0.02731825  0.02926618  0.72386683     0.38000
O375        O  0.02362101  0.02321703  0.74492084    -1.10200
O376        O  0.49164774  0.02542870  0.79624988    -0.66900
Ni377      Ni  0.48426696  0.01959754  0.75216703     1.26300
O378        O  0.00884614  0.47757690  0.70801800    -0.67100
O379        O  0.49109553  0.06035299  0.74438971    -0.79400
C380        C  0.42115886  0.99467776  0.75085567     0.84000
O381        O  0.44447138  0.01553741  0.75842566    -0.66600
Ni382      Ni  0.05314829  0.04958301  0.77162377     1.27400
Ni383      Ni  0.01784866  0.48217489  0.75202378     1.26100
H384        H  0.47555602  0.47234952  0.78160330     0.38600
O385        O  0.29788839  0.02364999  0.99664850    -0.74900
O386        O  0.21844681  0.02351306  0.99282737    -0.74900
O387        O  0.25730361  0.02271660  0.53922791    -0.75000
O388        O  0.25641490  0.02306476  0.95059845    -0.75000
O389        O  0.23882356  0.47388722  0.95131883    -0.75000
O390        O  0.24085603  0.47294006  0.53973010    -0.74900
O391        O  0.20031513  0.47292553  0.49330240    -0.74900
O392        O  0.27993641  0.47306150  0.49853043    -0.75000
Ni393      Ni  0.25868533  0.02529900  0.99465009     1.25400
Ni394      Ni  0.23954625  0.47117501  0.49579097     1.25400
C395        C  0.30064615  0.49822672  0.99857156     0.87300
C396        C  0.19544406  0.49744559  0.49331410     0.87200
C397        C  0.24933416  0.49729606  0.55410867     0.87200
C398        C  0.24614467  0.49853064  0.93683314     0.87400
O399        O  0.21903951  0.02451579  0.74321636    -0.74900
O400        O  0.29874913  0.02556324  0.74857890    -0.74900
O401        O  0.25841092  0.02552691  0.70182291    -0.75000
O402        O  0.25930501  0.02434933  0.78991829    -0.75000
O403        O  0.24265319  0.47594415  0.79009852    -0.75000
O404        O  0.24165514  0.47638653  0.70210307    -0.74900
O405        O  0.28196065  0.47638457  0.74912733    -0.74900
O406        O  0.20223838  0.47597303  0.74338516    -0.75000
Ni407      Ni  0.25940574  0.02672215  0.74585707     1.25400
Ni408      Ni  0.24155813  0.47443927  0.74613102     1.25400
C409        C  0.19709546  0.50035874  0.74283532     0.87300
C410        C  0.30315863  0.50083568  0.74986919     0.87200
C411        C  0.24997772  0.50086413  0.68736617     0.87200
C412        C  0.25093278  0.50032032  0.80447325     0.87400
C413        C  0.25927651  0.48084517  0.88940442    -0.26800
C414        C  0.24615402  0.49891559  0.90284543    -0.14900
C415        C  0.23516834  0.01617353  0.88342977     0.35800
C416        C  0.23810512  0.01688416  0.85166352    -0.26200
C417        C  0.25093119  0.50016015  0.83842953    -0.15500
C418        C  0.26240403  0.48159321  0.85766283     0.36800
N419        N  0.27825462  0.46404410  0.84624669    -0.89700
H420        H  0.26832360  0.46675079  0.90393691     0.18000
H421        H  0.22873743  0.03073716  0.83713773     0.18000
N422        N  0.21894079  0.03329827  0.89494031    -0.88800
H423        H  0.29916679  0.47045303  0.85780420     0.35300
H424        H  0.28201323  0.46836383  0.82310903     0.40400
H425        H  0.21546309  0.02898208  0.91814275     0.40000
H426        H  0.19794372  0.02644233  0.88357356     0.34900
C427        C  0.26767581  0.02317229  0.60392718    -0.26800
C428        C  0.24941914  0.49748931  0.58823217    -0.14900
C429        C  0.23023663  0.47446596  0.60516263     0.35800
C430        C  0.23091793  0.47631878  0.63717264    -0.26200
C431        C  0.25013856  0.50068642  0.65325722    -0.15500
C432        C  0.26847869  0.02500010  0.63596021     0.36800
N433        N  0.28826969  0.05102777  0.65026427    -0.89700
H434        H  0.28162990  0.04160945  0.59139628     0.18000
H435        H  0.21591526  0.45852536  0.64955817     0.18000
N436        N  0.20916398  0.44928048  0.59064802    -0.88800
H437        H  0.30245076  0.04511095  0.66658878     0.35300
H438        H  0.27613719  0.06165967  0.66107030     0.40400
H439        H  0.22027570  0.43749373  0.57997554     0.40000
H440        H  0.19588371  0.45631494  0.57419833     0.34900
C441        C  0.11317252  0.47826274  0.74374873    -0.26800
C442        C  0.10997524  0.50532479  0.75002855    -0.14900
C443        C  0.13547587  0.03068391  0.74777355     0.35800
C444        C  0.16324798  0.02813011  0.74530318    -0.26200
C445        C  0.16648149  0.50104934  0.74351103    -0.15500
C446        C  0.14093250  0.47578509  0.74057113     0.36800
N447        N  0.14218821  0.44731870  0.73439949    -0.89700
H448        H  0.09400851  0.45866617  0.74198466     0.18000
H449        H  0.18209985  0.04798696  0.74548638     0.18000
N450        N  0.13259160  0.05931494  0.74939956    -0.88800
H451        H  0.15406578  0.44083565  0.75270990     0.35300
H452        H  0.15270014  0.44846264  0.71415122     0.40400
H453        H  0.12027152  0.06236911  0.72951723     0.40000
H454        H  0.15306995  0.07576487  0.74914282     0.34900
C455        C  0.33990944  0.47646510  0.76651439    -0.26800
C456        C  0.33484032  0.00127129  0.75195117    -0.14900
C457        C  0.35807572  0.02471148  0.74066270     0.35800
C458        C  0.38655772  0.02283349  0.74208886    -0.26200
C459        C  0.39233827  0.99797022  0.75467095    -0.15500
C460        C  0.36828003  0.47449753  0.76860084     0.36800
N461        N  0.37289375  0.44972005  0.78488994    -0.89700
H462        H  0.32247006  0.45903326  0.77653656     0.18000
H463        H  0.40395111  0.04033644  0.73208475     0.18000
N464        N  0.35270195  0.04989311  0.72655615    -0.88800
H465        H  0.36663142  0.44990980  0.80724001     0.35300
H466        H  0.39509614  0.45169286  0.78754837     0.40400
H467        H  0.35897055  0.05171094  0.70399844     0.40000
H468        H  0.36612718  0.06847537  0.73849816     0.34900
C469        C  0.11219942  0.47561839  0.00381753    -0.26800
C470        C  0.10911739  0.50405560  0.49918025    -0.14900
C471        C  0.13194823  0.02868490  0.48956588     0.35800
C472        C  0.15969551  0.02594689  0.48739650    -0.26200
C473        C  0.16502205  0.49841267  0.49393827    -0.15500
C474        C  0.14007492  0.47284114  0.00156058     0.36800
N475        N  0.14417693  0.44493320  0.00767645    -0.89700
H476        H  0.09403808  0.45666375  0.01013138     0.18000
H477        H  0.17773722  0.04522323  0.48162440     0.19600
N478        N  0.12771315  0.05657271  0.48362679    -0.88800
H479        H  0.12419958  0.42876348  0.01173606     0.35300
H480        H  0.15753835  0.44683289  0.02810166     0.40400
H481        H  0.11320625  0.05434244  0.46403541     0.40000
H482        H  0.14738981  0.07261456  0.47838110     0.34900
C483        C  0.38650811  0.02088041  0.99513526    -0.26800
C484        C  0.39078594  0.99384576  0.00154890    -0.14900
C485        C  0.36456954  0.46732525  0.50747308     0.35800
C486        C  0.33662965  0.46991488  0.50684756    -0.26200
C487        C  0.33147521  0.49793024  0.00056779    -0.15500
C488        C  0.35835250  0.02369964  0.99456642     0.36800
N489        N  0.35475943  0.05164346  0.98724395    -0.89700
H490        H  0.40511312  0.03972801  0.98971955     0.18000
H491        H  0.31819854  0.45023096  0.51040492     0.18000
N492        N  0.36701369  0.43883571  0.51371908    -0.88800
H493        H  0.37464902  0.06703300  0.98149559     0.35300
H494        H  0.34935483  0.05930890  0.00725679     0.40400
H495        H  0.38270555  0.44033984  0.53210624     0.40000
H496        H  0.37348371  0.43136786  0.49425014     0.34900
C497        C  0.47025170  0.48990307  0.88799431    -0.26800
C498        C  0.99376162  0.48910990  0.90881737    -0.14900
C499        C  0.02494540  0.00207368  0.89826177     0.35800
C500        C  0.02940439  0.01222251  0.86802948    -0.26200
C501        C  0.00574761  0.01188945  0.84687835    -0.15500
C502        C  0.47683681  0.00152812  0.85675538     0.36800
N503        N  0.45187351  0.00078506  0.83604504    -0.89700
H504        H  0.44804157  0.48215150  0.89522715     0.18000
H505        H  0.05174366  0.02037002  0.86115661     0.18000
N506        N  0.04740765  0.49952312  0.91940143    -0.88800
H507        H  0.43057245  0.49324342  0.84832812     0.35300
H508        H  0.44929166  0.98452595  0.81988211     0.40400
H509        H  0.06376826  0.02496337  0.92040103     0.40000
H510        H  0.06133689  0.99090568  0.90948691     0.34900
C511        C  0.47936202  0.50877201  0.60855721    -0.26800
C512        C  0.00609500  0.00958701  0.59655989    -0.14900
C513        C  0.02337957  0.99506776  0.61397984     0.35800
C514        C  0.01672989  0.98561947  0.64395030    -0.26200
C515        C  0.99284190  0.49056022  0.65833819    -0.15500
C516        C  0.47239212  0.49920228  0.63841080     0.36800
N517        N  0.44456542  0.49907569  0.64763322    -0.89700
H518        H  0.46325818  0.51513816  0.59383681     0.18000
H519        H  0.03016747  0.97445107  0.65677291     0.18000
N520        N  0.04730083  0.98877910  0.60181563    -0.88800
H521        H  0.44807250  0.51234989  0.66692064     0.35300
H522        H  0.43190862  0.47758107  0.65293569     0.40400
H523        H  0.06373094  0.00849234  0.59717080     0.40000
H524        H  0.03963727  0.97691176  0.58153035     0.34900
C525        C  0.47428734  0.33841242  0.73513216    -0.26800
C526        C  0.00043319  0.33406439  0.74700147    -0.14900
C527        C  0.02429510  0.35857814  0.75773927     0.35800
C528        C  0.02149753  0.38674132  0.75580739    -0.26200
C529        C  0.99523679  0.39102021  0.74394460    -0.15500
C530        C  0.47139595  0.36634331  0.73361879     0.36800
N531        N  0.44385684  0.36924698  0.72206642    -0.89700
H532        H  0.45571447  0.31993959  0.72685926     0.18000
H533        H  0.03989388  0.40541079  0.76396971     0.18000
N534        N  0.05104857  0.35486511  0.77112458    -0.88800
H535        H  0.42752767  0.35618997  0.73567492     0.35300
H536        H  0.43910408  0.36111984  0.69968220     0.40400
H537        H  0.04613985  0.34279037  0.79152422     0.40000
H538        H  0.06652614  0.37511963  0.77732209     0.34900
C539        C  0.03191893  0.16404613  0.76133705    -0.26800
C540        C  0.00495589  0.16828601  0.75274105    -0.14900
C541        C  0.47977144  0.14338443  0.74625291     0.35800
C542        C  0.48239990  0.11520501  0.74824969    -0.26200
C543        C  0.50931087  0.11104376  0.75734694    -0.15500
C544        C  0.03439015  0.13606026  0.76392707     0.36800
N545        N  0.06293435  0.13409816  0.77263417    -0.89700
H546        H  0.05148745  0.18270648  0.76644165     0.18000
H547        H  0.46306649  0.09628836  0.74320654     0.18000
N548        N  0.45162972  0.14653949  0.73744971    -0.88800
H549        H  0.06865465  0.12248147  0.75585346     0.35300
H550        H  0.06243770  0.12323471  0.79383522     0.40400
H551        H  0.44424943  0.15301998  0.75696200     0.40000
H552        H  0.43613822  0.12631626  0.73116474     0.34900
C553        C  0.47998744  0.23401238  0.88980993    -0.26800
C554        C  0.00507572  0.25201969  0.90669265    -0.14900
C555        C  0.02927879  0.26942873  0.89075118     0.35800
C556        C  0.02792957  0.26805001  0.85855826    -0.26200
C557        C  0.00286117  0.25004628  0.84166794    -0.15500
C558        C  0.47867358  0.23258968  0.85758275     0.36800
N559        N  0.45307912  0.21306469  0.84117582    -0.89700
H560        H  0.46144223  0.22042371  0.90185836     0.18000
H561        H  0.04648376  0.28165975  0.84653549     0.18000
N562        N  0.05497696  0.28884700  0.90711000    -0.88800
H563        H  0.43713934  0.20222200  0.85628238     0.35300
H564        H  0.45941969  0.19687546  0.83133513     0.40400
H565        H  0.04878260  0.30514199  0.91692950     0.40000
H566        H  0.07095465  0.29956699  0.89199616     0.34900
C567        C  0.02932074  0.25027217  0.64410351    -0.26800
C568        C  0.00431160  0.25256028  0.65671563    -0.14900
C569        C  0.48086357  0.25524772  0.63644557     0.35800
C570        C  0.48287655  0.25530073  0.60464033    -0.26200
C571        C  0.00777433  0.25280769  0.59199990    -0.15500
C572        C  0.03132954  0.25030729  0.61227144     0.36800
N573        N  0.05724669  0.24694840  0.60148045    -0.89700
H574        H  0.04747686  0.24803905  0.65912790     0.18000
H575        H  0.46470973  0.25754619  0.58964644     0.18000
N576        N  0.45499850  0.25872878  0.64722799    -0.88800
H577        H  0.06826781  0.26580828  0.58919384     0.35300
H578        H  0.05107076  0.22876465  0.58706398     0.40400
H579        H  0.46125720  0.27676669  0.66185274     0.40000
H580        H  0.44374561  0.23979166  0.65926404     0.34900
C581        C  0.48101062  0.33911238  0.97655041    -0.26800
C582        C  0.00323157  0.33371385  0.99597005    -0.14900
C583        C  0.02311347  0.35685957  0.01345358     0.35800
C584        C  0.01956540  0.38469166  0.01191060    -0.26200
C585        C  0.99674662  0.39001930  0.99300102    -0.15500
C586        C  0.47786146  0.36698863  0.97428720     0.36800
N587        N  0.45553413  0.37175734  0.95294428    -0.89700
H588        H  0.46620142  0.32145906  0.96259325     0.18000
H589        H  0.03665770  0.40316481  0.52530687     0.18000
N590        N  0.04876137  0.35301611  0.53238740    -0.88800
H591        H  0.44294816  0.35227924  0.94194961     0.35300
H592        H  0.46622850  0.38597838  0.93573588     0.40400
H593        H  0.03889549  0.33814865  0.54950343     0.40000
H594        H  0.06148935  0.37234570  0.54355749     0.34900
C595        C  0.48106051  0.14521455  0.49985796    -0.26800
C596        C  0.50792020  0.16838660  0.50390824    -0.14900
C597        C  0.03405519  0.16148084  0.51015658     0.35800
C598        C  0.03285266  0.13209956  0.51218555    -0.26200
C599        C  0.50609388  0.10899891  0.50808663    -0.15500
C600        C  0.47983908  0.11565730  0.50202442     0.36800
N601        N  0.45202922  0.09252193  0.49865682    -0.89700
H602        H  0.46078898  0.15009306  0.49517779     0.18000
H603        H  0.05324482  0.12738546  0.51672953     0.18000
N604        N  0.06197522  0.18409056  0.51469284    -0.88800
H605        H  0.43488884  0.10113111  0.49403597     0.35300
H606        H  0.44850827  0.08150837  0.51980887     0.40400
H607        H  0.07562393  0.18148710  0.49841022     0.40000
H608        H  0.07129527  0.18117582  0.53653613     0.34900
O609        O  0.02903749  0.75888712  0.45870740    -0.74900
O610        O  0.03032564  0.75957314  0.04600383    -0.74900
O611        O  0.03019604  0.71959524  0.00411053    -0.75000
O612        O  0.02844266  0.79898605  0.50043547    -0.75000
O613        O  0.47948680  0.78169324  0.49643577    -0.75000
O614        O  0.48127706  0.70283317  0.00113819    -0.74900
O615        O  0.48143983  0.74289609  0.04297280    -0.74900
O616        O  0.48015054  0.74153050  0.45504980    -0.75000
Ni617      Ni  0.03098157  0.76005393  0.50264695     1.25400
Ni618      Ni  0.47896466  0.74167586  0.99896840     1.25400
C619        C  0.50460733  0.75018568  0.44229352     0.87300
C620        C  0.50609997  0.75137889  0.05906056     0.87200
C621        C  0.00594505  0.69813927  0.00357992     0.87200
C622        C  0.00357921  0.80333309  0.49780809     0.87400
O623        O  0.47853487  0.70325534  0.24952269    -0.74900
O624        O  0.47805269  0.78243939  0.24734344    -0.74900
O625        O  0.47841402  0.74340419  0.20456911    -0.75000
O626        O  0.47815201  0.74216500  0.29234623    -0.75000
O627        O  0.02706568  0.75892050  0.29618663    -0.75000
O628        O  0.02729831  0.75961189  0.20838227    -0.74900
O629        O  0.02695546  0.79897265  0.25090446    -0.74900
O630        O  0.02740295  0.71979863  0.25368987    -0.75000
Ni631      Ni  0.47655666  0.74226998  0.24829896     1.25400
Ni632      Ni  0.02891660  0.75992296  0.25241934     1.25400
C633        C  0.00310995  0.69837732  0.25222388     0.87300
C634        C  0.00237363  0.80385129  0.24870576     0.87200
C635        C  0.00285572  0.75165984  0.19189447     0.87200
C636        C  0.00257806  0.75004025  0.30884922     0.87400
O637        O  0.41976678  0.96880798  0.48622194    -0.81400
O638        O  0.05624992  0.98572246  0.49465339    -0.66100
O639        O  0.47902661  0.97663107  0.00923922    -1.12700
C640        C  0.50638386  0.57784677  0.01118675     1.05500
O641        O  0.07859382  0.52894781  0.01665008    -0.79300
O642        O  0.03637998  0.52492559  0.05634291    -0.66800
Ni643      Ni  0.44791075  0.94918941  0.48265949     1.34900
C644        C  0.01072028  0.51888457  0.06539053     0.84300
O645        O  0.01095466  0.94010526  0.50892197    -0.79800
O646        O  0.47118101  0.92421372  0.47714059    -0.90100
C647        C  0.08135891  0.00721623  0.00272600     0.83800
O648        O  0.46219554  0.97251091  0.44765054    -0.68300
O649        O  0.02707819  0.57299295  0.02796657    -0.87600
C650        C  0.98817657  0.97866475  0.43942125     0.84700
C651        C  0.99245718  0.91970491  0.49321468     1.06200
H652        H  0.02458581  0.52717296  0.47429225     0.38000
O653        O  0.02144676  0.52145942  0.49551092    -1.10200
O654        O  0.48931680  0.52157864  0.04758507    -0.66900
Ni655      Ni  0.48113296  0.51650680  0.00335581     1.26300
O656        O  0.00883639  0.97529106  0.45766037    -0.67100
O657        O  0.48722399  0.55734195  0.99619640    -0.79400
C658        C  0.41896508  0.49027818  0.50028165     0.84000
O659        O  0.44093808  0.51135976  0.00963537    -0.66600
Ni660      Ni  0.05028399  0.54828338  0.02143222     1.27400
Ni661      Ni  0.01655041  0.98076756  0.50165427     1.26100
H662        H  0.47558557  0.97069510  0.03036291     0.38600
O663        O  0.42264032  0.96930911  0.23908171    -0.81400
O664        O  0.06048136  0.98907295  0.24342585    -0.66100
O665        O  0.48096453  0.97848847  0.25890976    -1.12700
C666        C  0.51028930  0.58043790  0.26050366     1.05500
O667        O  0.08057838  0.52871945  0.27091672    -0.79300
O668        O  0.03757518  0.52670518  0.30821837    -0.66800
Ni669      Ni  0.45148552  0.95099236  0.23305631     1.34900
C670        C  0.01161863  0.52147508  0.31616011     0.84300
O671        O  0.01502180  0.94243058  0.25730917    -0.79800
O672        O  0.47532184  0.92714888  0.22536445    -0.90100
C673        C  0.08321148  0.00881178  0.25473989     0.83800
O674        O  0.46468940  0.97534976  0.19838454    -0.68300
O675        O  0.03061443  0.57545181  0.27782261    -0.87600
C676        C  0.99044264  0.98179673  0.18936835     0.84700
C677        C  0.99583844  0.92206492  0.24222473     1.06200
H678        H  0.02769480  0.52948060  0.22552990     0.38000
O679        O  0.02390467  0.52327839  0.24651376    -1.10200
O680        O  0.49139421  0.52520630  0.29754892    -0.66900
Ni681      Ni  0.48441429  0.51924429  0.25353019     1.26300
O682        O  0.01196876  0.97884656  0.20671736    -0.67100
O683        O  0.49087712  0.55995113  0.24569202    -0.79400
C684        C  0.42128132  0.49359242  0.25265638     0.84000
O685        O  0.44448373  0.51484821  0.25945271    -0.66600
Ni686      Ni  0.05315883  0.54958333  0.27344775     1.27400
Ni687      Ni  0.02054658  0.98320379  0.25092133     1.26100
H688        H  0.47787689  0.97265805  0.28009756     0.38600
O689        O  0.29614515  0.52182661  0.49721985    -0.74900
O690        O  0.21684149  0.52170295  0.49348791    -0.74900
O691        O  0.25653010  0.52159025  0.03950053    -0.75000
O692        O  0.25485356  0.52167382  0.45117104    -0.75000
O693        O  0.23955402  0.97477157  0.45120495    -0.75000
O694        O  0.24280602  0.97525532  0.03963664    -0.74900
O695        O  0.20217412  0.97472626  0.99309599    -0.74900
O696        O  0.28171500  0.97488830  0.99841693    -0.75000
Ni697      Ni  0.25698786  0.52345088  0.49521595     1.25400
Ni698      Ni  0.24137395  0.97303347  0.99571670     1.25400
C699        C  0.30125257  0.99918026  0.49856197     0.87300
C700        C  0.19713883  0.99917024  0.99269793     0.87200
C701        C  0.25122097  0.99969311  0.05386639     0.87200
C702        C  0.24700868  0.99936253  0.43666455     0.87400
O703        O  0.21944279  0.52420939  0.24396588    -0.74900
O704        O  0.29895291  0.52477667  0.24893352    -0.74900
O705        O  0.25833397  0.52472302  0.20232304    -0.75000
O706        O  0.25979731  0.52402277  0.29044425    -0.75000
O707        O  0.24498193  0.97648705  0.29008316    -0.75000
O708        O  0.24404445  0.97788213  0.20199719    -0.74900
O709        O  0.28409813  0.97675131  0.24892813    -0.74900
O710        O  0.20484812  0.97745893  0.24357587    -0.75000
Ni711      Ni  0.25968818  0.52615723  0.24636520     1.25400
Ni712      Ni  0.24391291  0.97541383  0.24606619     1.25400
C713        C  0.19993905  0.00192932  0.24360501     0.87300
C714        C  0.30551409  0.00101730  0.24987110     0.87200
C715        C  0.25247766  0.00251374  0.18751312     0.87200
C716        C  0.25345368  0.00075125  0.30468400     0.87400
C717        C  0.26042502  0.98119982  0.38973336    -0.26800
C718        C  0.24737172  0.99956235  0.40275904    -0.14900
C719        C  0.23426238  0.51521004  0.38372617     0.35800
C720        C  0.23769922  0.51624235  0.35204132    -0.26200
C721        C  0.25291951  0.00046484  0.33855931    -0.15500
C722        C  0.26381982  0.98167625  0.35807317     0.36800
N723        N  0.27929087  0.96358700  0.34704259    -0.89700
H724        H  0.26912985  0.96701722  0.40452600     0.18000
H725        H  0.22821410  0.52993078  0.33740497     0.18000
N726        N  0.21755424  0.53193773  0.39505569    -0.88800
H727        H  0.30016232  0.96975918  0.35868179     0.35300
H728        H  0.28312975  0.96755226  0.32388539     0.40400
H729        H  0.21389390  0.52748828  0.41820666     0.40000
H730        H  0.19667187  0.52487249  0.38344760     0.34900
C731        C  0.26557718  0.52266277  0.10408843    -0.26800
C732        C  0.25129514  0.99998212  0.08807010    -0.14900
C733        C  0.23298783  0.97639088  0.10513463     0.35800
C734        C  0.23381157  0.97806134  0.13717367    -0.26200
C735        C  0.25241081  0.00271328  0.15329641    -0.15500
C736        C  0.26644448  0.52458572  0.13610822     0.36800
N737        N  0.28515704  0.55129074  0.15007962    -0.89700
H738        H  0.27878571  0.54146494  0.09144476     0.18000
H739        H  0.21946248  0.95978435  0.14956902     0.18000
N740        N  0.21271137  0.95065519  0.09076820    -0.88800
H741        H  0.30016524  0.54643694  0.16620922     0.35300
H742        H  0.27228986  0.56101385  0.16099784     0.40400
H743        H  0.22444857  0.93954293  0.08004549     0.40000
H744        H  0.19880348  0.95695731  0.07443626     0.34900
C745        C  0.11617123  0.97984134  0.24589165    -0.26800
C746        C  0.11282979  0.00714001  0.25048123    -0.14900
C747        C  0.13667729  0.53076346  0.25306940     0.35800
C748        C  0.16430796  0.52797887  0.25031423    -0.26200
C749        C  0.16937391  0.00270155  0.24458465    -0.15500
C750        C  0.14392662  0.97724813  0.24322724     0.36800
N751        N  0.14526747  0.94839376  0.23946945    -0.89700
H752        H  0.09709944  0.96013462  0.24514770     0.18000
H753        H  0.18351852  0.54743398  0.25291514     0.18000
N754        N  0.13451708  0.55925320  0.25806603    -0.88800
H755        H  0.15769902  0.94336593  0.25823566     0.35300
H756        H  0.15513010  0.94791832  0.21913911     0.40400
H757        H  0.12332245  0.56476387  0.23852995     0.40000
H758        H  0.15530814  0.57526900  0.25998575     0.34900
C759        C  0.34166469  0.97532317  0.26452897    -0.26800
C760        C  0.33488077  0.50028064  0.25269258    -0.14900
C761        C  0.35823437  0.52359473  0.24141683     0.35800
C762        C  0.38670332  0.52166939  0.24323220    -0.26200
C763        C  0.39238791  0.49687961  0.25617818    -0.15500
C764        C  0.36993853  0.97309176  0.26634258     0.36800
N765        N  0.37412183  0.94748708  0.28120631    -0.89700
H766        H  0.32395564  0.95739594  0.27347329     0.18000
H767        H  0.40417880  0.53907871  0.23322167     0.18000
N768        N  0.35300313  0.54868957  0.22691902    -0.88800
H769        H  0.36729818  0.94642943  0.30348075     0.35300
H770        H  0.39629633  0.94940988  0.28423744     0.40400
H771        H  0.35944385  0.55029581  0.20444198     0.40000
H772        H  0.36637106  0.56735985  0.23876367     0.34900
C773        C  0.11252557  0.97659035  0.50137336    -0.26800
C774        C  0.11028485  0.00466702  0.99758992    -0.14900
C775        C  0.13134973  0.52753602  0.99106094     0.35800
C776        C  0.15900959  0.52476454  0.98847691    -0.26200
C777        C  0.16655253  0.99978702  0.99282358    -0.15500
C778        C  0.14046221  0.97384437  0.49954965     0.36800
N779        N  0.14439589  0.94582555  0.50535580    -0.89700
H780        H  0.09424066  0.95753831  0.50719181     0.18000
H781        H  0.17690641  0.54395957  0.98220387     0.19600
N782        N  0.12698219  0.55533310  0.98488108    -0.88800
H783        H  0.12427803  0.92958246  0.50871081     0.35300
H784        H  0.15724552  0.94732022  0.52608784     0.40400
H785        H  0.11218354  0.55282526  0.96549884     0.40000
H786        H  0.14653388  0.57131508  0.97919459     0.34900
C787        C  0.38509013  0.51977357  0.49834431    -0.26800
C788        C  0.38927023  0.49244511  0.50257971    -0.14900
C789        C  0.36634066  0.96922486  0.00844886     0.35800
C790        C  0.33846509  0.97196961  0.00792781    -0.26200
C791        C  0.33202601  0.99872927  0.50067647    -0.15500
C792        C  0.35686319  0.52243584  0.49774316     0.36800
N793        N  0.35346516  0.55078415  0.49287323    -0.89700
H794        H  0.40384759  0.53905080  0.49463918     0.18000
H795        H  0.32019052  0.95268174  0.01316256     0.18000
N796        N  0.36906008  0.94117295  0.01668855    -0.88800
H797        H  0.37360378  0.56670750  0.48885401     0.35300
H798        H  0.34714425  0.55661457  0.51337587     0.40400
H799        H  0.38518921  0.94388909  0.03485835     0.40000
H800        H  0.37520220  0.93250082  0.99780391     0.34900
C801        C  0.47106406  0.98984134  0.38641150    -0.26800
C802        C  0.99446062  0.98949471  0.40761351    -0.14900
C803        C  0.02400936  0.50187924  0.39966507     0.35800
C804        C  0.02864640  0.51213171  0.36952385    -0.26200
C805        C  0.00505991  0.51114566  0.34804088    -0.15500
C806        C  0.47598814  0.49978999  0.35738404     0.36800
N807        N  0.45110263  0.49845625  0.33630629    -0.89700
H808        H  0.44876194  0.98188861  0.39338035     0.18000
H809        H  0.05108233  0.52104035  0.36303484     0.18000
N810        N  0.04815560  0.00098023  0.41905698    -0.88800
H811        H  0.43166087  0.99272706  0.34616485     0.35300
H812        H  0.44924684  0.48244004  0.32010134     0.40400
H813        H  0.06202391  0.52604892  0.42234023     0.40000
H814        H  0.06120915  0.49239071  0.41174930     0.34900
C815        C  0.48880614  0.02056773  0.11224648    -0.26800
C816        C  0.00542994  0.50901211  0.09769774    -0.14900
C817        C  0.02654997  0.50154602  0.11783015     0.35800
C818        C  0.01994139  0.49211053  0.14773947    -0.26200
C819        C  0.99557994  0.99176920  0.15736583    -0.15500
C820        C  0.48264904  0.01152007  0.14246918     0.36800
N821        N  0.46400057  0.02348564  0.15765636    -0.89700
H822        H  0.47894782  0.03585483  0.10112098     0.18000
H823        H  0.03655798  0.48656462  0.16246774     0.18000
N824        N  0.05484882  0.50288651  0.10887984    -0.88800
H825        H  0.47525638  0.03343154  0.17797628     0.35300
H826        H  0.44508922  0.00647647  0.16304575     0.40400
H827        H  0.06672850  0.52456478  0.10331840     0.40000
H828        H  0.05209654  0.48935101  0.08993941     0.34900
C829        C  0.47512722  0.83906740  0.23735109    -0.26800
C830        C  0.00165659  0.83446454  0.24731959    -0.14900
C831        C  0.02655887  0.85905313  0.25568275     0.35800
C832        C  0.02430554  0.88743617  0.25340501    -0.26200
C833        C  0.99769997  0.89189566  0.24337149    -0.15500
C834        C  0.47285772  0.86724360  0.23548627     0.36800
N835        N  0.44493411  0.87048421  0.22625939    -0.89700
H836        H  0.45575220  0.82061927  0.23093544     0.18000
H837        H  0.04343457  0.90616596  0.25971471     0.18000
N838        N  0.05391179  0.85526413  0.26687607    -0.88800
H839        H  0.42975523  0.85836417  0.24154728     0.35300
H840        H  0.43813597  0.86147869  0.20439062     0.40400
H841        H  0.05060963  0.84424377  0.28804059     0.40000
H842        H  0.07010554  0.87556690  0.27123995     0.34900
C843        C  0.03089802  0.66366729  0.26302099    -0.26800
C844        C  0.00393185  0.66780654  0.25418124    -0.14900
C845        C  0.47890572  0.64286555  0.24732017     0.35800
C846        C  0.48167156  0.61470918  0.24941870    -0.26200
C847        C  0.50863014  0.61067270  0.25871941    -0.15500
C848        C  0.03357241  0.63577796  0.26543325     0.36800
N849        N  0.06222819  0.63403701  0.27398600    -0.89700
H850        H  0.05038054  0.68236127  0.26833126     0.18000
H851        H  0.46245808  0.59573656  0.24414685     0.18000
N852        N  0.45088155  0.64598517  0.23782021    -0.88800
H853        H  0.06802443  0.62259459  0.25709286     0.35300
H854        H  0.06191009  0.62313898  0.29514700     0.40400
H855        H  0.44307468  0.65246771  0.25704103     0.40000
H856        H  0.43554284  0.62574385  0.23132778     0.34900
C857        C  0.47926854  0.73299366  0.39090284    -0.26800
C858        C  0.00458920  0.75012566  0.40816101    -0.14900
C859        C  0.02936110  0.76680448  0.39250674     0.35800
C860        C  0.02815142  0.76595236  0.36026488    -0.26200
C861        C  0.00273696  0.74915794  0.34298880    -0.15500
C862        C  0.47812356  0.73206899  0.35861763     0.36800
N863        N  0.45221417  0.71347293  0.34183622    -0.89700
H864        H  0.46033911  0.71984215  0.40267917     0.18000
H865        H  0.04710121  0.77910067  0.34851635     0.18000
N866        N  0.05553384  0.78503800  0.40919631    -0.88800
H867        H  0.43601606  0.70280344  0.35673625     0.35300
H868        H  0.45795723  0.69706696  0.33164094     0.40400
H869        H  0.05029836  0.80190983  0.41907958     0.40000
H870        H  0.07192598  0.79512895  0.39430447     0.34900
C871        C  0.02843477  0.75034578  0.14501008    -0.26800
C872        C  0.00316775  0.75173550  0.15783631    -0.14900
C873        C  0.47917221  0.75340593  0.13773424     0.35800
C874        C  0.48100744  0.75350489  0.10592297    -0.26200
C875        C  0.00617651  0.75191874  0.09309683    -0.15500
C876        C  0.03022822  0.75036164  0.11316256     0.36800
N877        N  0.05647712  0.74797426  0.10216018    -0.89700
H878        H  0.04699798  0.74886296  0.15987105     0.18000
H879        H  0.46243846  0.75499054  0.09107074     0.18000
N880        N  0.45284139  0.75566409  0.14865267    -0.88800
H881        H  0.06683003  0.76696196  0.08970834     0.35300
H882        H  0.05081775  0.72973150  0.08787522     0.40400
H883        H  0.45839696  0.77376198  0.16312562     0.40000
H884        H  0.44235875  0.73653405  0.16082572     0.34900
C885        C  0.47818895  0.83833495  0.47913478    -0.26800
C886        C  0.00215721  0.83356772  0.49603053    -0.14900
C887        C  0.02356573  0.85736588  0.51127434     0.35800
C888        C  0.02025336  0.88531727  0.50949114    -0.26200
C889        C  0.99597451  0.89010392  0.49284154    -0.15500
C890        C  0.47494675  0.86617541  0.47697699     0.36800
N891        N  0.45016636  0.86989760  0.45884447    -0.89700
H892        H  0.46192471  0.82016557  0.46711989     0.18000
H893        H  0.03912108  0.90373083  0.01992305     0.18000
N894        N  0.05013726  0.85310180  0.02773825    -0.88800
H895        H  0.43595197  0.84977691  0.45051238     0.35300
H896        H  0.45821723  0.88249715  0.43950367     0.40400
H897        H  0.04248832  0.83968400  0.04670153     0.40000
H898        H  0.06448865  0.87297157  0.03651455     0.34900
C899        C  0.48117381  0.64453909  0.99493176    -0.26800
C900        C  0.50619441  0.66746035  0.00586495    -0.14900
C901        C  0.03064066  0.66056117  0.01937074     0.35800
C902        C  0.02989886  0.63129971  0.02108678    -0.26200
C903        C  0.50506314  0.60827967  0.00980391    -0.15500
C904        C  0.48021420  0.61507183  0.99691996     0.36800
N905        N  0.45398817  0.59217506  0.98619871    -0.89700
H906        H  0.46217806  0.64960430  0.98474840     0.18000
H907        H  0.04917550  0.62671989  0.03123024     0.18000
N908        N  0.05613925  0.68307250  0.03198320    -0.88800
H909        H  0.43806047  0.60095863  0.97674334     0.35300
H910        H  0.44528547  0.57979966  0.00542995     0.40400
H911        H  0.07429770  0.68240705  0.02091384     0.40000
H912        H  0.05943502  0.67828254  0.05528376     0.34900
O913        O  0.02887872  0.75877527  0.95818334    -0.74900
O914        O  0.02962240  0.76006398  0.54631895    -0.74900
O915        O  0.02990492  0.71994415  0.50474982    -0.75000
O916        O  0.02900607  0.79871974  0.00034231    -0.75000
O917        O  0.48005421  0.78164775  0.99702415    -0.75000
O918        O  0.48103211  0.70297112  0.50158463    -0.74900
O919        O  0.48072549  0.74337880  0.54298082    -0.74900
O920        O  0.47996693  0.74173000  0.95515991    -0.75000
Ni921      Ni  0.03135508  0.75973875  0.00222264     1.25400
Ni922      Ni  0.47860987  0.74178851  0.49889474     1.25400
C923        C  0.50422644  0.75041956  0.94210578     0.87300
C924        C  0.50532757  0.75193985  0.55921392     0.87200
C925        C  0.00575099  0.69835160  0.50404247     0.87200
C926        C  0.00421487  0.80320357  0.99815760     0.87400
O927        O  0.47744471  0.70312531  0.74937773    -0.74900
O928        O  0.47653801  0.78210511  0.74734237    -0.74900
O929        O  0.47747157  0.74346796  0.70449858    -0.75000
O930        O  0.47662579  0.74190127  0.79226588    -0.75000
O931        O  0.02553665  0.75900987  0.79631586    -0.75000
O932        O  0.02635925  0.75983086  0.70864372    -0.74900
O933        O  0.02544301  0.79896326  0.75115944    -0.74900
O934        O  0.02631381  0.71983941  0.75396869    -0.75000
Ni935      Ni  0.47528984  0.74206986  0.74820664     1.25400
Ni936      Ni  0.02765450  0.75998873  0.75265440     1.25400
C937        C  0.00205487  0.69835161  0.75227566     0.87300
C938        C  0.00074134  0.80361240  0.74891656     0.87200
C939        C  0.00200795  0.75200631  0.69200692     0.87200
C940        C  0.00099070  0.75015826  0.80883524     0.87400
O941        O  0.42151913  0.96844060  0.98695346    -0.81400
O942        O  0.05828237  0.98639501  0.99451483    -0.66100
O943        O  0.47701488  0.97636031  0.50909088    -1.12700
C944        C  0.50672090  0.57817294  0.51072198     1.05500
O945        O  0.07959121  0.52996965  0.51632873    -0.79300
O946        O  0.03746739  0.52603073  0.55620562    -0.66800
Ni947      Ni  0.45003649  0.94942483  0.98271925     1.34900
C948        C  0.01178374  0.51989108  0.56525263     0.84300
O949        O  0.01304529  0.94049168  0.00875816    -0.79800
O950        O  0.47367758  0.92501602  0.97645681    -0.90100
C951        C  0.07939102  0.00658860  0.50255506     0.83800
O952        O  0.46412721  0.97343853  0.94810088    -0.68300
O953        O  0.02772632  0.57366160  0.52727154    -0.87600
C954        C  0.99007291  0.97979745  0.93968267     0.84700
C955        C  0.99450907  0.92016761  0.99298218     1.06200
H956        H  0.02393204  0.52652544  0.97459981     0.38000
O957        O  0.02063389  0.52082538  0.99579711    -1.10200
O958        O  0.49025428  0.52211010  0.54736404    -0.66900
Ni959      Ni  0.48186539  0.51672787  0.50329061     1.26300
O960        O  0.01078500  0.97605140  0.95758659    -0.67100
O961        O  0.48735990  0.55750032  0.49611567    -0.79400
C962        C  0.41811516  0.49078289  0.99983368     0.84000
O963        O  0.44165761  0.51103376  0.51002995    -0.66600
Ni964      Ni  0.05109124  0.54910759  0.52096716     1.27400
Ni965      Ni  0.01858422  0.98121049  0.00165080     1.26100
H966        H  0.47352750  0.97039244  0.53019346     0.38600
O967        O  0.42116417  0.97078569  0.73960780    -0.81400
O968        O  0.05810264  0.98732586  0.74295010    -0.66100
O969        O  0.47929312  0.97869322  0.75956622    -1.12700
C970        C  0.50917097  0.58019666  0.76080605     1.05500
O971        O  0.07935684  0.52827647  0.77065219    -0.79300
O972        O  0.03624515  0.52601258  0.80803166    -0.66800
Ni973      Ni  0.44911101  0.95118913  0.73435460     1.34900
C974        C  0.01026449  0.52070332  0.81595361     0.84300
O975        O  0.01241802  0.94172348  0.75818431    -0.79800
O976        O  0.47190279  0.92613723  0.72741214    -0.90100
C977        C  0.08121569  0.00702684  0.75349245     0.83800
O978        O  0.46234377  0.97420980  0.69889548    -0.68300
O979        O  0.02943900  0.57500665  0.77803452    -0.87600
C980        C  0.98793003  0.98023945  0.68961769     0.84700
C981        C  0.99289509  0.92125590  0.74359990     1.06200
H982        H  0.02659850  0.52922457  0.72537245     0.38000
O983        O  0.02271794  0.52292155  0.74631352    -1.10200
O984        O  0.49003538  0.52444192  0.79732710    -0.66900
Ni985      Ni  0.48321054  0.51896368  0.75318739     1.26300
O986        O  0.00944089  0.97741607  0.70706634    -0.67100
O987        O  0.48983919  0.55980823  0.74576674    -0.79400
C988        C  0.42006493  0.49351970  0.75152761     0.84000
O989        O  0.44326004  0.51456726  0.75895929    -0.66600
Ni990      Ni  0.05192480  0.54909843  0.77341284     1.27400
Ni991      Ni  0.01853400  0.98246549  0.75111281     1.26100
H992        H  0.47644130  0.97318440  0.78086087     0.38600
O993        O  0.29535860  0.52254753  0.99753664    -0.74900
O994        O  0.21572488  0.52176923  0.99360340    -0.74900
O995        O  0.25782530  0.52172678  0.53930829    -0.75000
O996        O  0.25432545  0.52277909  0.95142705    -0.75000
O997        O  0.24093896  0.97416042  0.95167655    -0.75000
O998        O  0.24080469  0.97393863  0.53919036    -0.74900
O999        O  0.20029149  0.97407615  0.49268278    -0.74900
O1000       O  0.27999921  0.97475375  0.49793398    -0.75000
Ni1001     Ni  0.25604168  0.52388536  0.99547650     1.25400
Ni1002     Ni  0.23960722  0.97264951  0.49520951     1.25400
C1003       C  0.30302638  0.99925053  0.99840823     0.87300
C1004       C  0.19517099  0.99846146  0.49270834     0.87200
C1005       C  0.24914377  0.99815518  0.55382269     0.87200
C1006       C  0.24800811  0.99845979  0.93661446     0.87400
O1007       O  0.21841943  0.52471468  0.74290648    -0.74900
O1008       O  0.29805361  0.52526044  0.74872905    -0.74900
O1009       O  0.25791816  0.52518753  0.70178135    -0.75000
O1010       O  0.25858476  0.52485481  0.78981389    -0.75000
O1011       O  0.24350440  0.97544295  0.78967403    -0.75000
O1012       O  0.24255554  0.97674122  0.70180372    -0.74900
O1013       O  0.28298441  0.97669604  0.74863763    -0.74900
O1014       O  0.20307482  0.97578714  0.74310861    -0.75000
Ni1015     Ni  0.25877762  0.52673292  0.74575668     1.25400
Ni1016     Ni  0.24247495  0.97443750  0.74574664     1.25400
C1017       C  0.19779657  0.00010425  0.74278806     0.87300
C1018       C  0.30405724  0.00125790  0.74953570     0.87200
C1019       C  0.25060044  0.00130034  0.68722204     0.87200
C1020       C  0.25171514  0.99965327  0.80430173     0.87400
C1021       C  0.26034787  0.97999310  0.88917085    -0.26800
C1022       C  0.24724901  0.99806617  0.90263895    -0.14900
C1023       C  0.23483372  0.51763400  0.88362576     0.35800
C1024       C  0.23784341  0.51827872  0.85184372    -0.26200
C1025       C  0.25155755  0.99912080  0.83821954    -0.15500
C1026       C  0.26312787  0.98054606  0.85736624     0.36800
N1027       N  0.27871703  0.96280547  0.84581609    -0.89700
H1028       H  0.26966930  0.96611012  0.90370345     0.18000
H1029       H  0.22882221  0.53237714  0.83728507     0.18000
N1030       N  0.21933075  0.53549127  0.89508793    -0.88800
H1031       H  0.29973646  0.96916856  0.85712708     0.35300
H1032       H  0.28220630  0.96692381  0.82260378     0.40400
H1033       H  0.21566665  0.53128482  0.91825571     0.40000
H1034       H  0.19838117  0.52929624  0.88362164     0.34900
C1035       C  0.26870089  0.52183989  0.60431595    -0.26800
C1036       C  0.24954587  0.99812820  0.58800183    -0.14900
C1037       C  0.23187507  0.97423898  0.60517606     0.35800
C1038       C  0.23262192  0.97610794  0.63718090    -0.26200
C1039       C  0.25058763  0.00122579  0.65308515    -0.15500
C1040       C  0.26933188  0.52371536  0.63634185     0.36800
N1041       N  0.29028225  0.54895199  0.65089165    -0.89700
H1042       H  0.28368780  0.53963360  0.59191561     0.18000
H1043       H  0.21869996  0.95764401  0.64970604     0.18000
N1044       N  0.21237406  0.94801027  0.59097371    -0.88800
H1045       H  0.30352160  0.54196759  0.66743241     0.35300
H1046       H  0.27904697  0.56065033  0.66150681     0.40400
H1047       H  0.22471301  0.93761979  0.58014270     0.40000
H1048       H  0.19793523  0.95361709  0.57472222     0.34900
C1049       C  0.11394344  0.97768771  0.74470324    -0.26800
C1050       C  0.11053642  0.00509826  0.74843678    -0.14900
C1051       C  0.13521787  0.53073870  0.75157235     0.35800
C1052       C  0.16292561  0.52822259  0.74851614    -0.26200
C1053       C  0.16710125  0.00068376  0.74299428    -0.15500
C1054       C  0.14175293  0.97514062  0.74209167     0.36800
N1055       N  0.14327842  0.94629525  0.73881740    -0.89700
H1056       H  0.09494418  0.95793695  0.74466357     0.18000
H1057       H  0.18198577  0.54787418  0.75043707     0.18000
N1058       N  0.13275192  0.55919599  0.75600473    -0.88800
H1059       H  0.15583391  0.94161855  0.75767388     0.35300
H1060       H  0.15316281  0.94564198  0.71854410     0.40400
H1061       H  0.12105725  0.56409548  0.73652144     0.40000
H1062       H  0.15341679  0.57543972  0.75726625     0.34900
C1063       C  0.34098137  0.97700439  0.76566349    -0.26800
C1064       C  0.33384272  0.50055991  0.75224217    -0.14900
C1065       C  0.35701041  0.52347279  0.74013824     0.35800
C1066       C  0.38542975  0.52144633  0.74173076    -0.26200
C1067       C  0.39118524  0.49681602  0.75500981    -0.15500
C1068       C  0.36944352  0.97531306  0.76785326     0.36800
N1069       N  0.37418232  0.95046677  0.78387583    -0.89700
H1070       H  0.32354327  0.95924441  0.77525282     0.18000
H1071       H  0.40279012  0.53860799  0.73125627     0.18000
N1072       N  0.35157974  0.54816780  0.72491392    -0.88800
H1073       H  0.36765693  0.95028548  0.80617042     0.35300
H1074       H  0.39643854  0.95268576  0.78675922     0.40400
H1075       H  0.35760322  0.54902887  0.70233172     0.40000
H1076       H  0.36516914  0.56717644  0.73604072     0.34900
C1077       C  0.11446098  0.97729399  0.00096911    -0.26800
C1078       C  0.10827609  0.00390726  0.49746389    -0.14900
C1079       C  0.13335749  0.52899797  0.49311555     0.35800
C1080       C  0.16087530  0.52588357  0.49059536    -0.26200
C1081       C  0.16455634  0.99899067  0.49285354    -0.15500
C1082       C  0.14236660  0.97454750  0.99902545     0.36800
N1083       N  0.14615063  0.94638873  0.00416183    -0.89700
H1084       H  0.09612112  0.95815511  0.00644734     0.18000
H1085       H  0.17929860  0.54529799  0.48617466     0.19600
N1086       N  0.12994821  0.55744784  0.48929173    -0.88800
H1087       H  0.12595006  0.93008848  0.00699610     0.35300
H1088       H  0.15872594  0.94736773  0.02500473     0.40400
H1089       H  0.11599373  0.55682876  0.46952822     0.40000
H1090       H  0.15000136  0.57353588  0.48534198     0.34900
C1091       C  0.38389819  0.51987254  0.99335275    -0.26800
C1092       C  0.38862639  0.49340692  0.00187167    -0.14900
C1093       C  0.36445153  0.96906548  0.50736638     0.35800
C1094       C  0.33661365  0.97180150  0.50710873    -0.26200
C1095       C  0.33378627  0.99871056  0.00048461    -0.15500
C1096       C  0.35563075  0.52249173  0.99257090     0.36800
N1097       N  0.35143239  0.54965516  0.98269725    -0.89700
H1098       H  0.40218774  0.53832354  0.98638682     0.18000
H1099       H  0.31827511  0.95232245  0.51164049     0.18000
N1100       N  0.36697338  0.94070860  0.51431872    -0.88800
H1101       H  0.37095992  0.56454687  0.97540105     0.35300
H1102       H  0.34662159  0.55901932  0.00193529     0.40400
H1103       H  0.38300583  0.94267507  0.53245685     0.40000
H1104       H  0.37308431  0.93271271  0.49495823     0.34900
C1105       C  0.47248592  0.99151632  0.88716380    -0.26800
C1106       C  0.99611777  0.99116412  0.90800509    -0.14900
C1107       C  0.02257468  0.49939483  0.89899825     0.35800
C1108       C  0.02719278  0.50983357  0.86890237    -0.26200
C1109       C  0.00371570  0.51026193  0.84785975    -0.15500
C1110       C  0.47476080  0.50008411  0.85763977     0.36800
N1111       N  0.44993965  0.49978178  0.83691144    -0.89700
H1112       H  0.45028150  0.98342861  0.89439486     0.18000
H1113       H  0.04954705  0.51760763  0.86205784     0.18000
N1114       N  0.04992277  0.00316613  0.91889017    -0.88800
H1115       H  0.43256498  0.99429220  0.84756037     0.35300
H1116       H  0.44731880  0.48372695  0.82049437     0.40400
H1117       H  0.06179171  0.52108809  0.92116174     0.40000
H1118       H  0.05825899  0.48690321  0.90965714     0.34900
C1119       C  0.48246911  0.01403212  0.60999136    -0.26800
C1120       C  0.00642795  0.51038368  0.59761734    -0.14900
C1121       C  0.02704420  0.50213880  0.61771278     0.35800
C1122       C  0.01995630  0.49231467  0.64742766    -0.26200
C1123       C  0.99309699  0.99004733  0.65737792    -0.15500
C1124       C  0.47580176  0.00455249  0.63996486     0.36800
N1125       N  0.45182824  0.01074590  0.65212524    -0.89700
H1126       H  0.46905302  0.02521890  0.59716385     0.18000
H1127       H  0.03608853  0.48594686  0.66210172     0.18000
N1128       N  0.05527193  0.50309725  0.60889691    -0.88800
H1129       H  0.45945616  0.02263014  0.67240513     0.35300
H1130       H  0.43547166  0.99098695  0.65679978     0.40400
H1131       H  0.06746118  0.52475713  0.60361089     0.40000
H1132       H  0.05241872  0.48978640  0.58975303     0.34900
C1133       C  0.47354264  0.83855337  0.73620424    -0.26800
C1134       C  0.99970464  0.83405608  0.74775033    -0.14900
C1135       C  0.02387488  0.85852736  0.75800972     0.35800
C1136       C  0.02128832  0.88676761  0.75605925    -0.26200
C1137       C  0.99501656  0.89117455  0.74448371    -0.15500
C1138       C  0.47089494  0.86656672  0.73461640     0.36800
N1139       N  0.44332635  0.86963620  0.72344455    -0.89700
H1140       H  0.45475650  0.82013211  0.72826138     0.18000
H1141       H  0.03989524  0.90540847  0.76386067     0.18000
N1142       N  0.05077070  0.85472288  0.77082032    -0.88800
H1143       H  0.42714172  0.85678174  0.73733026     0.35300
H1144       H  0.43820837  0.86137599  0.70112627     0.40400
H1145       H  0.04623792  0.84285485  0.79139013     0.40000
H1146       H  0.06647617  0.87496722  0.77661945     0.34900
C1147       C  0.02885317  0.66337858  0.76670424    -0.26800
C1148       C  0.00288887  0.66779148  0.75435650    -0.14900
C1149       C  0.47884703  0.64314870  0.74417387     0.35800
C1150       C  0.48154589  0.61495947  0.74658411    -0.26200
C1151       C  0.50750875  0.61054416  0.75924550    -0.15500
C1152       C  0.03150204  0.63545517  0.76930308     0.36800
N1153       N  0.05921718  0.63355594  0.78167731    -0.89700
H1154       H  0.04752455  0.68190683  0.77466385     0.18000
H1155       H  0.46304553  0.59626723  0.73867443     0.18000
N1156       N  0.45202714  0.64667343  0.73072802    -0.88800
H1157       H  0.06760197  0.62343211  0.76567403     0.35300
H1158       H  0.05623936  0.62137833  0.80215460     0.40400
H1159       H  0.44147905  0.65210772  0.74842434     0.40000
H1160       H  0.43770920  0.62677636  0.72197392     0.34900
C1161       C  0.47871353  0.73248299  0.89106768    -0.26800
C1162       C  0.00360494  0.75076880  0.90799685    -0.14900
C1163       C  0.02736107  0.76910945  0.89207542     0.35800
C1164       C  0.02591746  0.76821354  0.85984363    -0.26200
C1165       C  0.00112992  0.74982752  0.84289957    -0.15500
C1166       C  0.47725255  0.73163760  0.85877274     0.36800
N1167       N  0.45184515  0.71196817  0.84223069    -0.89700
H1168       H  0.46046321  0.71830468  0.90311669     0.18000
H1169       H  0.04416243  0.78245808  0.84783523     0.18000
N1170       N  0.05266197  0.78903156  0.90852871    -0.88800
H1171       H  0.43612557  0.70053659  0.85731600     0.35300
H1172       H  0.45853862  0.69627150  0.83188838     0.40400
H1173       H  0.04577609  0.80462944  0.91880403     0.40000
H1174       H  0.06831243  0.80055555  0.89341643     0.34900
C1175       C  0.02737377  0.75014791  0.64515178    -0.26800
C1176       C  0.00251385  0.75251976  0.65797695    -0.14900
C1177       C  0.47907646  0.75557896  0.63792231     0.35800
C1178       C  0.48077604  0.75547752  0.60608229    -0.26200
C1179       C  0.00542733  0.75265936  0.59324472    -0.15500
C1180       C  0.02914768  0.75020855  0.61330092     0.36800
N1181       N  0.05500793  0.74692633  0.60226976    -0.89700
H1182       H  0.04558523  0.74781744  0.66001481     0.18000
H1183       H  0.46259562  0.75787215  0.59121666     0.18000
N1184       N  0.45358123  0.75965483  0.64895949    -0.88800
H1185       H  0.06592587  0.76581774  0.58996832     0.35300
H1186       H  0.04879340  0.72875211  0.58783818     0.40400
H1187       H  0.46030760  0.77768928  0.66361190     0.40000
H1188       H  0.44206904  0.74084074  0.66101423     0.34900
C1189       C  0.47849165  0.83823875  0.98068887    -0.26800
C1190       C  0.00297156  0.83350889  0.99651005    -0.14900
C1191       C  0.02512527  0.85745051  0.01070330     0.35800
C1192       C  0.02217140  0.88555113  0.00870588    -0.26200
C1193       C  0.99748862  0.89033232  0.99296475    -0.15500
C1194       C  0.47550635  0.86617667  0.97846456     0.36800
N1195       N  0.44994964  0.86973624  0.96177107    -0.89700
H1196       H  0.46158392  0.81995450  0.96955531     0.18000
H1197       H  0.03656158  0.90334549  0.52163394     0.18000
N1198       N  0.04814036  0.85298770  0.52916972    -0.88800
H1199       H  0.43501190  0.84945601  0.95476995     0.35300
H1200       H  0.45686369  0.88144367  0.94159381     0.40400
H1201       H  0.03989747  0.83911415  0.54763886     0.40000
H1202       H  0.06198638  0.87275606  0.53865947     0.34900
C1203       C  0.47970660  0.64417263  0.50064350    -0.26800
C1204       C  0.50616022  0.66760955  0.50599957    -0.14900
C1205       C  0.03239636  0.66114080  0.51329090     0.35800
C1206       C  0.03174708  0.63192231  0.51474218    -0.26200
C1207       C  0.50541831  0.60852061  0.50918805    -0.15500
C1208       C  0.47901569  0.61475483  0.50231332     0.36800
N1209       N  0.45157250  0.59132585  0.49758466    -0.89700
H1210       H  0.45935607  0.64873636  0.49521162     0.18000
H1211       H  0.05225948  0.62760595  0.52003710     0.18000
N1212       N  0.05985043  0.68403845  0.51952523    -0.88800
H1213       H  0.43429379  0.59964534  0.49242468     0.35300
H1214       H  0.44742764  0.57983935  0.51841716     0.40400
H1215       H  0.07448329  0.68231297  0.50390356     0.40000
H1216       H  0.06826713  0.68063797  0.54165378     0.34900
O1217       O  0.53177411  0.26043869  0.45720846    -0.74900
O1218       O  0.53081268  0.25922352  0.04487835    -0.74900
O1219       O  0.53127533  0.22043854  0.00187249    -0.75000
O1220       O  0.53178349  0.30004963  0.49970841    -0.75000
O1221       O  0.98279429  0.28325614  0.49535294    -0.75000
O1222       O  0.98241125  0.20326330  0.99891520    -0.74900
O1223       O  0.98191688  0.24247965  0.04148934    -0.74900
O1224       O  0.98285453  0.24325760  0.45377630    -0.75000
Ni1225     Ni  0.53379635  0.26093889  0.50130142     1.25400
Ni1226     Ni  0.97978686  0.24201693  0.99742897     1.25400
C1227       C  0.00723259  0.25199313  0.44093482     0.87300
C1228       C  0.00648678  0.25069398  0.05776456     0.87200
C1229       C  0.50719382  0.19877113  0.00098719     0.87200
C1230       C  0.50705755  0.30465575  0.49681883     0.87400
O1231       O  0.97972976  0.20362882  0.24830439    -0.74900
O1232       O  0.97902455  0.28261469  0.24663222    -0.74900
O1233       O  0.97929132  0.24375811  0.20352087    -0.75000
O1234       O  0.97959448  0.24242083  0.29140269    -0.75000
O1235       O  0.52850497  0.25963787  0.29484964    -0.75000
O1236       O  0.52816454  0.25989414  0.20700325    -0.74900
O1237       O  0.52789227  0.29944945  0.24957645    -0.74900
O1238       O  0.52858308  0.22019489  0.25239569    -0.75000
Ni1239     Ni  0.97769192  0.24255952  0.24732015     1.25400
Ni1240     Ni  0.53003570  0.26039334  0.25106089     1.25400
C1241       C  0.50427389  0.19875295  0.25091057     0.87300
C1242       C  0.50321512  0.30415110  0.24787469     0.87200
C1243       C  0.50363571  0.25182590  0.19066924     0.87200
C1244       C  0.50412233  0.25074043  0.30768687     0.87400
O1245       O  0.92043024  0.46753679  0.48777580    -0.81400
O1246       O  0.55713712  0.48608601  0.49544785    -0.66100
O1247       O  0.97662817  0.47570935  0.01011665    -1.12700
C1248       C  0.00827091  0.07872874  0.00971021     1.05500
O1249       O  0.58087584  0.03035390  0.01534401    -0.79300
O1250       O  0.53872338  0.02627463  0.05550669    -0.66800
Ni1251     Ni  0.94900900  0.44854165  0.48372465     1.34900
C1252       C  0.51294070  0.02015141  0.06435691     0.84300
O1253       O  0.51233410  0.44031691  0.50967216    -0.79800
O1254       O  0.97276109  0.42410088  0.47769053    -0.90100
C1255       C  0.57898132  0.50563069  0.00436622     0.83800
O1256       O  0.96294075  0.47228019  0.44888659    -0.68300
O1257       O  0.52909234  0.07417352  0.02657549    -0.87600
C1258       C  0.48892871  0.47879807  0.44056378     0.84700
C1259       C  0.49447441  0.42002619  0.49335563     1.06200
H1260       H  0.52399035  0.02718020  0.47339832     0.38000
O1261       O  0.52086028  0.02150324  0.49462818    -1.10200
O1262       O  0.99147463  0.02275306  0.04666533    -0.66900
Ni1263     Ni  0.98322260  0.01735307  0.00250039     1.26300
O1264       O  0.50971471  0.47541422  0.45857943    -0.67100
O1265       O  0.98891883  0.05804831  0.99516433    -0.79400
C1266       C  0.91853808  0.99146681  0.49910443     0.84000
O1267       O  0.94307851  0.01196075  0.00906753    -0.66600
Ni1268     Ni  0.55242764  0.04950823  0.02028737     1.27400
Ni1269     Ni  0.51747627  0.48083549  0.50254429     1.26100
H1270       H  0.97312539  0.46984409  0.03124932     0.38600
O1271       O  0.92147398  0.46944704  0.24221407    -0.81400
O1272       O  0.55881037  0.48807545  0.24394007    -0.66100
O1273       O  0.97994573  0.47840706  0.26117442    -1.12700
C1274       C  0.01048947  0.08041538  0.25976899     1.05500
O1275       O  0.58173774  0.03021927  0.26988216    -0.79300
O1276       O  0.53785627  0.02629827  0.30708892    -0.66800
Ni1277     Ni  0.94984665  0.45054474  0.23626026     1.34900
C1278       C  0.51176530  0.02079464  0.31479568     0.84300
O1279       O  0.51369985  0.44194972  0.25919394    -0.79800
O1280       O  0.97310697  0.42613478  0.22856604    -0.90100
C1281       C  0.58174935  0.50747178  0.25530091     0.83800
O1282       O  0.96242391  0.47390123  0.20086218    -0.68300
O1283       O  0.53025988  0.07516009  0.27770866    -0.87600
C1284       C  0.48788579  0.48011608  0.19120776     0.84700
C1285       C  0.49435646  0.42146361  0.24446773     1.06200
H1286       H  0.52899818  0.03035365  0.22445523     0.38000
O1287       O  0.52496245  0.02385991  0.24532645    -1.10200
O1288       O  0.99166653  0.02460030  0.29603741    -0.66900
Ni1289     Ni  0.98524050  0.01930086  0.25186811     1.26300
O1290       O  0.50969173  0.47772356  0.20850654    -0.67100
O1291       O  0.99142142  0.06005229  0.24447142    -0.79400
C1292       C  0.92215103  0.99306034  0.25024778     0.84000
O1293       O  0.94518310  0.01434254  0.25751040    -0.66600
Ni1294     Ni  0.55357522  0.05012471  0.27287433     1.27400
Ni1295     Ni  0.51922665  0.48264343  0.25245092     1.26100
H1296       H  0.97733852  0.47293612  0.28250470     0.38600
O1297       O  0.79603468  0.02353413  0.49735464    -0.74900
O1298       O  0.71642540  0.02286295  0.49319620    -0.74900
O1299       O  0.75963513  0.02402067  0.03884450    -0.75000
O1300       O  0.75508760  0.02367217  0.45114980    -0.75000
O1301       O  0.73927744  0.47276470  0.45174878    -0.75000
O1302       O  0.74016760  0.47281911  0.03946965    -0.74900
O1303       O  0.69963763  0.47297477  0.99308243    -0.74900
O1304       O  0.77944020  0.47375161  0.99800248    -0.75000
Ni1305     Ni  0.75675381  0.02492422  0.49519073     1.25400
Ni1306     Ni  0.73898048  0.47161191  0.99541002     1.25400
C1307       C  0.80127726  0.49744165  0.49889770     0.87300
C1308       C  0.69450747  0.49734565  0.99331897     0.87200
C1309       C  0.74829549  0.49703713  0.05411313     0.87200
C1310       C  0.74655575  0.49721277  0.43695019     0.87400
O1311       O  0.72141671  0.02618057  0.24381885    -0.74900
O1312       O  0.80072281  0.02560358  0.24900914    -0.74900
O1313       O  0.76066751  0.02665642  0.20226983    -0.75000
O1314       O  0.76155070  0.02539305  0.29028736    -0.75000
O1315       O  0.74384189  0.47510569  0.29041204    -0.75000
O1316       O  0.74218203  0.47595605  0.20244696    -0.74900
O1317       O  0.78295194  0.47591056  0.24913264    -0.74900
O1318       O  0.70314412  0.47546442  0.24415051    -0.75000
Ni1319     Ni  0.76166267  0.02768678  0.24630245     1.25400
Ni1320     Ni  0.74247753  0.47387164  0.24646985     1.25400
C1321       C  0.69809370  0.49990366  0.24384798     0.87300
C1322       C  0.80412781  0.50040299  0.25001884     0.87200
C1323       C  0.75014711  0.50046280  0.18774612     0.87200
C1324       C  0.75210823  0.49938623  0.30492082     0.87400
C1325       C  0.76021790  0.47968419  0.38975544    -0.26800
C1326       C  0.74635846  0.49717906  0.40302460    -0.14900
C1327       C  0.73640450  0.01830474  0.38322820     0.35800
C1328       C  0.73988118  0.01884656  0.35157375    -0.26200
C1329       C  0.75178534  0.49894486  0.33879935    -0.15500
C1330       C  0.76357262  0.48062856  0.35805588     0.36800
N1331       N  0.77990858  0.46352914  0.34670079    -0.89700
H1332       H  0.76966048  0.46595918  0.40438496     0.18000
H1333       H  0.73121735  0.03305396  0.33677000     0.18000
N1334       N  0.72076850  0.03625001  0.39423018    -0.88800
H1335       H  0.80081306  0.47031444  0.35826940     0.35300
H1336       H  0.78357756  0.46785015  0.32354189     0.40400
H1337       H  0.71670123  0.03204438  0.41731140     0.40000
H1338       H  0.69998429  0.03011141  0.38239954     0.34900
C1339       C  0.76981572  0.02474996  0.10415659    -0.26800
C1340       C  0.74842742  0.49711819  0.08832439    -0.14900
C1341       C  0.73150080  0.47292104  0.10569374     0.35800
C1342       C  0.73238391  0.47483402  0.13774499    -0.26200
C1343       C  0.74967837  0.50034372  0.15351012    -0.15500
C1344       C  0.77070177  0.02636497  0.13627645     0.36800
N1345       N  0.79104546  0.05198199  0.15078842    -0.89700
H1346       H  0.78411620  0.04301933  0.09170994     0.18000
H1347       H  0.71915121  0.45606271  0.15041449     0.18000
N1348       N  0.71266259  0.44629792  0.09166298    -0.88800
H1349       H  0.80497325  0.04551474  0.16695765     0.35300
H1350       H  0.77934105  0.06291449  0.16183471     0.40400
H1351       H  0.72545040  0.43648554  0.08074174     0.40000
H1352       H  0.69778088  0.45130781  0.07549666     0.34900
C1353       C  0.61419478  0.47853649  0.24384891    -0.26800
C1354       C  0.61122669  0.50559284  0.25063978    -0.14900
C1355       C  0.63799459  0.03262717  0.25126027     0.35800
C1356       C  0.66573441  0.03006000  0.24833743    -0.26200
C1357       C  0.66758930  0.50080728  0.24464094    -0.15500
C1358       C  0.64188570  0.47582077  0.24088059     0.36800
N1359       N  0.64292009  0.44743303  0.23397697    -0.89700
H1360       H  0.59488537  0.45912695  0.24143306     0.18000
H1361       H  0.68473407  0.04979960  0.24933147     0.18000
N1362       N  0.63541585  0.06116703  0.25481148    -0.88800
H1363       H  0.65447036  0.44038936  0.25217976     0.35300
H1364       H  0.65370744  0.44900264  0.21384542     0.40400
H1365       H  0.62357358  0.06552868  0.23516553     0.40000
H1366       H  0.65604423  0.07746620  0.25566244     0.34900
C1367       C  0.84090107  0.47609659  0.26679298    -0.26800
C1368       C  0.83607972  0.00034245  0.25203257    -0.14900
C1369       C  0.85964609  0.02386826  0.24148881     0.35800
C1370       C  0.88789162  0.02151889  0.24261448    -0.26200
C1371       C  0.89318588  0.99605101  0.25402467    -0.15500
C1372       C  0.86936280  0.47435818  0.26936413     0.36800
N1373       N  0.87396501  0.44963708  0.28578152    -0.89700
H1374       H  0.82336883  0.45845867  0.27641021     0.18000
H1375       H  0.90553697  0.03925606  0.23328635     0.18000
N1376       N  0.85486121  0.04969723  0.22839981    -0.88800
H1377       H  0.86720443  0.44963009  0.30794558     0.35300
H1378       H  0.89621778  0.45190586  0.28899293     0.40400
H1379       H  0.86122153  0.05212957  0.20585396     0.40000
H1380       H  0.86850656  0.06775905  0.24096086     0.34900
C1381       C  0.61272030  0.47635118  0.50121401    -0.26800
C1382       C  0.60785411  0.50286694  0.99950795    -0.14900
C1383       C  0.63400296  0.02954574  0.99002216     0.35800
C1384       C  0.66176617  0.02683645  0.98780399    -0.26200
C1385       C  0.66395410  0.49786340  0.99405103    -0.15500
C1386       C  0.64044558  0.47321512  0.49904959     0.36800
N1387       N  0.64361619  0.44467545  0.50273085    -0.89700
H1388       H  0.59403252  0.45717636  0.50568283     0.18000
H1389       H  0.67986263  0.04618986  0.98235028     0.19600
N1390       N  0.62978788  0.05748442  0.98443462    -0.88800
H1391       H  0.62319050  0.42852449  0.50490228     0.35300
H1392       H  0.65595507  0.44456420  0.52353101     0.40400
H1393       H  0.61532962  0.05545940  0.96482935     0.40000
H1394       H  0.64948489  0.07358412  0.97935368     0.34900
C1395       C  0.88484513  0.02116418  0.49609850    -0.26800
C1396       C  0.88901485  0.99393004  0.50138466    -0.14900
C1397       C  0.86455811  0.46920954  0.01053726     0.35800
C1398       C  0.83659951  0.47179527  0.00993840    -0.26200
C1399       C  0.83208022  0.49697827  0.50131026    -0.15500
C1400       C  0.85667002  0.02393830  0.49566980     0.36800
N1401       N  0.85313973  0.05206810  0.48940531    -0.89700
H1402       H  0.90354271  0.04021775  0.49144441     0.18000
H1403       H  0.81860275  0.45288070  0.01665804     0.18000
N1404       N  0.86779260  0.44177391  0.02059762    -0.88800
H1405       H  0.87311446  0.06769175  0.48427753     0.35300
H1406       H  0.84744524  0.05898941  0.50968439     0.40400
H1407       H  0.88429476  0.44569813  0.03851585     0.40000
H1408       H  0.87375973  0.43211170  0.00232961     0.34900
C1409       C  0.97143489  0.48948092  0.38766492    -0.26800
C1410       C  0.49505293  0.49002661  0.40890954    -0.14900
C1411       C  0.52340898  0.00008460  0.39816086     0.35800
C1412       C  0.52826832  0.01021440  0.36800475    -0.26200
C1413       C  0.50492737  0.01025160  0.34661206    -0.15500
C1414       C  0.97584341  0.99989627  0.35604999     0.36800
N1415       N  0.95116898  0.99935137  0.33498731    -0.89700
H1416       H  0.94913386  0.48060028  0.39452720     0.18000
H1417       H  0.55071419  0.01821385  0.36143988     0.18000
N1418       N  0.54893686  0.50398900  0.42076530    -0.88800
H1419       H  0.93160663  0.49131763  0.34749792     0.35300
H1420       H  0.94885262  0.98327846  0.31868096     0.40400
H1421       H  0.56214668  0.02271906  0.42062992     0.40000
H1422       H  0.55951287  0.98855325  0.40986450     0.34900
C1423       C  0.97812434  0.50646995  0.10865908    -0.26800
C1424       C  0.50769566  0.01045169  0.09642893    -0.14900
C1425       C  0.52047997  0.99059246  0.11131013     0.35800
C1426       C  0.51445560  0.98169253  0.14153812    -0.26200
C1427       C  0.49272287  0.48968528  0.15876896    -0.15500
C1428       C  0.97153427  0.49703691  0.13865890     0.36800
N1429       N  0.94326073  0.49557761  0.14777140    -0.89700
H1430       H  0.96154259  0.51198304  0.09384640     0.18000
H1431       H  0.52428792  0.96635985  0.15260849     0.18000
N1432       N  0.53868871  0.97815702  0.09601708    -0.88800
H1433       H  0.94609419  0.50916586  0.16668379     0.35300
H1434       H  0.93162102  0.47390352  0.15360451     0.40400
H1435       H  0.55776643  0.99486757  0.09049031     0.40000
H1436       H  0.52717307  0.96821473  0.07580129     0.34900
C1437       C  0.97494858  0.33871371  0.23900998    -0.26800
C1438       C  0.50208625  0.33463863  0.24708604    -0.14900
C1439       C  0.52703044  0.35956673  0.25429440     0.35800
C1440       C  0.52411543  0.38770660  0.25294433    -0.26200
C1441       C  0.49686106  0.39157883  0.24486382    -0.15500
C1442       C  0.97207974  0.36662886  0.23792209     0.36800
N1443       N  0.94364120  0.36930320  0.23038288    -0.89700
H1444       H  0.95551673  0.32004136  0.23346483     0.18000
H1445       H  0.54325049  0.40670963  0.25837514     0.18000
N1446       N  0.55512264  0.35639179  0.26329383    -0.88800
H1447       H  0.92937592  0.35691647  0.24633826     0.35300
H1448       H  0.93597693  0.36028882  0.20864783     0.40400
H1449       H  0.55340046  0.34549605  0.28456794     0.40000
H1450       H  0.57122188  0.37690385  0.26681116     0.34900
C1451       C  0.53158782  0.16371970  0.26256814    -0.26800
C1452       C  0.50493387  0.16811670  0.25282926    -0.14900
C1453       C  0.97994494  0.14332475  0.24528495     0.35800
C1454       C  0.98246234  0.11506642  0.24750389    -0.26200
C1455       C  0.00906759  0.11075052  0.25781908    -0.15500
C1456       C  0.53394176  0.13570117  0.26535852     0.36800
N1457       N  0.56221773  0.13366024  0.27529276    -0.89700
H1458       H  0.55100637  0.18229881  0.26847749     0.18000
H1459       H  0.96329481  0.09622628  0.24162698     0.18000
N1460       N  0.95217338  0.14669241  0.23507026    -0.88800
H1461       H  0.56863886  0.12222901  0.25887135     0.35300
H1462       H  0.56091582  0.12261732  0.29644369     0.40400
H1463       H  0.94391005  0.15299510  0.25407653     0.40000
H1464       H  0.93689666  0.12656495  0.22813010     0.34900
C1465       C  0.98241904  0.23289907  0.39004375    -0.26800
C1466       C  0.50681131  0.25207638  0.40684184    -0.14900
C1467       C  0.53023272  0.27088751  0.39081960     0.35800
C1468       C  0.52892032  0.26964742  0.35858172    -0.26200
C1469       C  0.50453245  0.25047550  0.34177753    -0.15500
C1470       C  0.98108447  0.23169527  0.35778846     0.36800
N1471       N  0.95624584  0.21107087  0.34140919    -0.89700
H1472       H  0.96447232  0.21830291  0.40218580     0.18000
H1473       H  0.54684898  0.28428248  0.34644564     0.18000
N1474       N  0.55498249  0.29165396  0.40716591    -0.88800
H1475       H  0.94079901  0.19922068  0.35657180     0.35300
H1476       H  0.96377324  0.19585071  0.33129686     0.40400
H1477       H  0.54733512  0.30683425  0.41718404     0.40000
H1478       H  0.57040895  0.30352987  0.39199619     0.34900
C1479       C  0.52865756  0.24913369  0.14374741    -0.26800
C1480       C  0.50374056  0.25139790  0.15659476    -0.14900
C1481       C  0.97981141  0.25322804  0.13650223     0.35800
C1482       C  0.98146339  0.25292427  0.10467464    -0.26200
C1483       C  0.50640721  0.25080475  0.09182444    -0.15500
C1484       C  0.53024900  0.24869488  0.11188506     0.36800
N1485       N  0.55603735  0.24524573  0.10085705    -0.89700
H1486       H  0.54709001  0.24732800  0.15861061     0.18000
H1487       H  0.96300682  0.25469198  0.08982551     0.18000
N1488       N  0.95376885  0.25614590  0.14744953    -0.88800
H1489       H  0.56694279  0.26399955  0.08836028     0.35300
H1490       H  0.54971383  0.22694535  0.08659055     0.40400
H1491       H  0.95971893  0.27443680  0.16169343     0.40000
H1492       H  0.94310221  0.23726347  0.15989447     0.34900
C1493       C  0.98398717  0.34037924  0.47495818    -0.26800
C1494       C  0.50598651  0.33492051  0.49468947    -0.14900
C1495       C  0.52568729  0.35801160  0.51237651     0.35800
C1496       C  0.52199741  0.38578195  0.51094948    -0.26200
C1497       C  0.49919233  0.39107241  0.49199023    -0.15500
C1498       C  0.98069139  0.36819269  0.47283489     0.36800
N1499       N  0.95855079  0.37303122  0.45127538    -0.89700
H1500       H  0.96936739  0.32278082  0.46079661     0.18000
H1501       H  0.53444259  0.40214142  0.02604621     0.18000
N1502       N  0.54631384  0.35189016  0.03329566    -0.88800
H1503       H  0.94628441  0.35366332  0.43989659     0.35300
H1504       H  0.96941189  0.38759170  0.43439741     0.40400
H1505       H  0.53656784  0.33709085  0.05051669     0.40000
H1506       H  0.55915510  0.37124646  0.04434678     0.34900
C1507       C  0.98131814  0.14458815  0.99790217    -0.26800
C1508       C  0.00778038  0.16809521  0.00274318    -0.14900
C1509       C  0.53408758  0.16173936  0.01002730     0.35800
C1510       C  0.53343653  0.13253205  0.01232889    -0.26200
C1511       C  0.00705758  0.10907511  0.00754376    -0.15500
C1512       C  0.98062425  0.11520812  0.00043848     0.36800
N1513       N  0.95312925  0.09171684  0.99644893    -0.89700
H1514       H  0.96093056  0.14906794  0.99241932     0.18000
H1515       H  0.55396065  0.12825089  0.01767620     0.18000
N1516       N  0.56160637  0.18474256  0.01547248    -0.88800
H1517       H  0.93582822  0.09995658  0.99104728     0.35300
H1518       H  0.94916451  0.08079123  0.01760441     0.40400
H1519       H  0.57602048  0.18252439  0.99985149     0.40000
H1520       H  0.57028428  0.18193843  0.03765877     0.34900
O1521       O  0.53005879  0.26046547  0.95703387    -0.74900
O1522       O  0.53234495  0.26034082  0.54511356    -0.74900
O1523       O  0.53225364  0.22066934  0.50274021    -0.75000
O1524       O  0.52955905  0.29931693  0.00016651    -0.75000
O1525       O  0.98057144  0.28191508  0.99605775    -0.75000
O1526       O  0.98339055  0.20423407  0.49982046    -0.74900
O1527       O  0.98345354  0.24439790  0.54157696    -0.74900
O1528       O  0.98115686  0.24281343  0.95366154    -0.75000
Ni1529     Ni  0.53217334  0.26045945  0.00108538     1.25400
Ni1530     Ni  0.98140755  0.24320817  0.49753231     1.25400
C1531       C  0.00550515  0.25187974  0.94078243     0.87300
C1532       C  0.00798475  0.25242477  0.55793315     0.87200
C1533       C  0.50793559  0.19928098  0.50202419     0.87200
C1534       C  0.50466144  0.30356458  0.99765304     0.87400
O1535       O  0.97943617  0.20348406  0.74803201    -0.74900
O1536       O  0.97773237  0.28206925  0.74625746    -0.74900
O1537       O  0.97912531  0.24368520  0.70322009    -0.75000
O1538       O  0.97828962  0.24189455  0.79104657    -0.75000
O1539       O  0.52720141  0.25924360  0.79505699    -0.75000
O1540       O  0.52801313  0.26046519  0.70741188    -0.74900
O1541       O  0.52664033  0.29932751  0.75017311    -0.74900
O1542       O  0.52828903  0.22042629  0.75251500    -0.75000
Ni1543     Ni  0.97692024  0.24219759  0.74697047     1.25400
Ni1544     Ni  0.52928068  0.26047560  0.75141541     1.25400
C1545       C  0.50410367  0.19884100  0.75085896     0.87300
C1546       C  0.50180553  0.30373043  0.74798444     0.87200
C1547       C  0.50369148  0.25232657  0.69074697     0.87200
C1548       C  0.50268040  0.25024200  0.80760226     0.87400
O1549       O  0.91922934  0.46773790  0.98764294    -0.81400
O1550       O  0.55586292  0.48495330  0.99600871    -0.66100
O1551       O  0.97789916  0.47603629  0.51006537    -1.12700
C1552       C  0.00677683  0.07847031  0.51007997     1.05500
O1553       O  0.57902219  0.02991766  0.51482036    -0.79300
O1554       O  0.53707485  0.02560852  0.55527869    -0.66800
Ni1555     Ni  0.94754257  0.44832610  0.98384343     1.34900
C1556       C  0.51137472  0.01946599  0.56435120     0.84300
O1557       O  0.51059559  0.43952255  0.01002794    -0.79800
O1558       O  0.97097082  0.42350684  0.97807383    -0.90100
C1559       C  0.58017317  0.50680172  0.50388317     0.83800
O1560       O  0.96170279  0.47178319  0.94891621    -0.68300
O1561       O  0.52740416  0.07358367  0.52693052    -0.87600
C1562       C  0.48768231  0.47810322  0.94061598     0.84700
C1563       C  0.49249577  0.41922661  0.99392334     1.06200
H1564       H  0.52597257  0.02768352  0.97359003     0.38000
O1565       O  0.52277629  0.02191456  0.99478672    -1.10200
O1566       O  0.98990119  0.02221936  0.54672195    -0.66900
Ni1567     Ni  0.98139161  0.01713160  0.50254958     1.26300
O1568       O  0.50845879  0.47478659  0.95875575    -0.67100
O1569       O  0.98724877  0.05796160  0.49546961    -0.79400
C1570       C  0.92029650  0.99133169  0.99933434     0.84000
O1571       O  0.94131608  0.01181997  0.50936850    -0.66600
Ni1572     Ni  0.55063647  0.04900892  0.52013317     1.27400
Ni1573     Ni  0.51617822  0.48010225  0.00281202     1.26100
H1574       H  0.97449961  0.47013711  0.53120875     0.38600
O1575       O  0.92026581  0.46958030  0.74056795    -0.81400
O1576       O  0.55752405  0.48750907  0.74385522    -0.66100
O1577       O  0.97848560  0.47801542  0.76035274    -1.12700
C1578       C  0.01066555  0.08072674  0.75915651     1.05500
O1579       O  0.58045314  0.02876657  0.76854587    -0.79300
O1580       O  0.53785340  0.02677868  0.80656411    -0.66800
Ni1581     Ni  0.94856586  0.45049418  0.73486960     1.34900
C1582       C  0.51201112  0.02179101  0.81477174     0.84300
O1583       O  0.51201547  0.44138014  0.75849551    -0.79800
O1584       O  0.97171645  0.42586988  0.72741011    -0.90100
C1585       C  0.58048488  0.50701379  0.75502722     0.83800
O1586       O  0.96173191  0.47409354  0.69973265    -0.68300
O1587       O  0.53084176  0.07552442  0.77648474    -0.87600
C1588       C  0.48737311  0.48038709  0.69050748     0.84700
C1589       C  0.49277052  0.42099237  0.74350791     1.06200
H1590       H  0.52732154  0.02926714  0.72386878     0.38000
O1591       O  0.52362388  0.02321764  0.74492267    -1.10200
O1592       O  0.99164597  0.02542763  0.79624903    -0.66900
Ni1593     Ni  0.98426435  0.01959712  0.75216616     1.26300
O1594       O  0.50884895  0.47757734  0.70801796    -0.67100
O1595       O  0.99109223  0.06035270  0.74438961    -0.79400
C1596       C  0.92115707  0.99467851  0.75085390     0.84000
O1597       O  0.94446957  0.01553707  0.75842609    -0.66600
Ni1598     Ni  0.55315113  0.04958314  0.77162595     1.27400
Ni1599     Ni  0.51784965  0.48217536  0.75202441     1.26100
H1600       H  0.97555622  0.47235255  0.78160449     0.38600
O1601       O  0.79788898  0.02364938  0.99664868    -0.74900
O1602       O  0.71844751  0.02351503  0.99282711    -0.74900
O1603       O  0.75730486  0.02271729  0.53922739    -0.75000
O1604       O  0.75641582  0.02306565  0.95059838    -0.75000
O1605       O  0.73881950  0.47388129  0.95131991    -0.75000
O1606       O  0.74085738  0.47294407  0.53973009    -0.74900
O1607       O  0.70031579  0.47292879  0.49330224    -0.74900
O1608       O  0.77993703  0.47306579  0.49852911    -0.75000
Ni1609     Ni  0.75868607  0.02529976  0.99465006     1.25400
Ni1610     Ni  0.73954695  0.47117888  0.49579068     1.25400
C1611       C  0.80064334  0.49822210  0.99857015     0.87300
C1612       C  0.69544438  0.49744868  0.49331301     0.87200
C1613       C  0.74933568  0.49730005  0.55410877     0.87200
C1614       C  0.74614045  0.49852442  0.93683367     0.87400
O1615       O  0.71904064  0.02451838  0.74321518    -0.74900
O1616       O  0.79874967  0.02556570  0.74857842    -0.74900
O1617       O  0.75841212  0.02552933  0.70182207    -0.75000
O1618       O  0.75930560  0.02435176  0.78991759    -0.75000
O1619       O  0.74265428  0.47594287  0.79009923    -0.75000
O1620       O  0.74165873  0.47638847  0.70210395    -0.74900
O1621       O  0.78196333  0.47638509  0.74912967    -0.74900
O1622       O  0.70224041  0.47597406  0.74338563    -0.75000
Ni1623     Ni  0.75940660  0.02672464  0.74585628     1.25400
Ni1624     Ni  0.74156045  0.47443978  0.74613190     1.25400
C1625       C  0.69709775  0.50035999  0.74283719     0.87300
C1626       C  0.80316103  0.50083649  0.74987341     0.87200
C1627       C  0.74998148  0.50086644  0.68736769     0.87200
C1628       C  0.75093335  0.50031848  0.80447484     0.87400
C1629       C  0.75927291  0.48083925  0.88940513    -0.26800
C1630       C  0.74614967  0.49890906  0.90284609    -0.14900
C1631       C  0.73516805  0.01617394  0.88342958     0.35800
C1632       C  0.73810478  0.01688507  0.85166324    -0.26200
C1633       C  0.75093040  0.50015688  0.83843090    -0.15500
C1634       C  0.76240234  0.48158907  0.85766386     0.36800
N1635       N  0.77825405  0.46404103  0.84624772    -0.89700
H1636       H  0.76831953  0.46674446  0.90393754     0.18000
H1637       H  0.72873593  0.03073726  0.83713761     0.18000
N1638       N  0.71893907  0.03329714  0.89494034    -0.88800
H1639       H  0.79916558  0.47044953  0.85780660     0.35300
H1640       H  0.78201417  0.46836237  0.82311058     0.40400
H1641       H  0.71546212  0.02898113  0.91814296     0.40000
H1642       H  0.69794182  0.02643972  0.88357401     0.34900
C1643       C  0.76767833  0.02317309  0.60392654    -0.26800
C1644       C  0.74942117  0.49749324  0.58823263    -0.14900
C1645       C  0.73024002  0.47446907  0.60516345     0.35800
C1646       C  0.73092236  0.47632125  0.63717370    -0.26200
C1647       C  0.75014197  0.50068944  0.65325836    -0.15500
C1648       C  0.76848109  0.02500140  0.63595950     0.36800
N1649       N  0.78827275  0.05102883  0.65026340    -0.89700
H1650       H  0.78163291  0.04160983  0.59139546     0.18000
H1651       H  0.71592089  0.45852695  0.64955935     0.18000
N1652       N  0.70916733  0.44928352  0.59064897    -0.88800
H1653       H  0.80245328  0.04511159  0.66658824     0.35300
H1654       H  0.77614066  0.06166142  0.66106908     0.40400
H1655       H  0.72027889  0.43749727  0.57997545     0.40000
H1656       H  0.69588623  0.45631792  0.57420015     0.34900
C1657       C  0.61317449  0.47826657  0.74374911    -0.26800
C1658       C  0.60997787  0.50532803  0.75003346    -0.14900
C1659       C  0.63547733  0.03068552  0.74777418     0.35800
C1660       C  0.66324944  0.02813223  0.74530297    -0.26200
C1661       C  0.66648403  0.50105136  0.74351502    -0.15500
C1662       C  0.64093426  0.47578836  0.74057094     0.36800
N1663       N  0.64218892  0.44732271  0.73439389    -0.89700
H1664       H  0.59400995  0.45867075  0.74198115     0.18000
H1665       H  0.68210116  0.04798921  0.74548655     0.18000
N1666       N  0.63259264  0.05931626  0.74940149    -0.88800
H1667       H  0.65406537  0.44083629  0.75270301     0.35300
H1668       H  0.65270171  0.44846967  0.71414565     0.40400
H1669       H  0.62027209  0.06237076  0.72951969     0.40000
H1670       H  0.65307080  0.07576640  0.74914458     0.34900
C1671       C  0.83991431  0.47647118  0.76652784    -0.26800
C1672       C  0.83484031  0.00127370  0.75195058    -0.14900
C1673       C  0.85807534  0.02471327  0.74066079     0.35800
C1674       C  0.88655701  0.02283477  0.74208638    -0.26200
C1675       C  0.89233718  0.99797159  0.75466917    -0.15500
C1676       C  0.86828549  0.47450494  0.76861454     0.36800
N1677       N  0.87290235  0.44973207  0.78491041    -0.89700
H1678       H  0.82247621  0.45904156  0.77655464     0.18000
H1679       H  0.90395034  0.04033708  0.73208138     0.18000
N1680       N  0.85270146  0.04989456  0.72655352    -0.88800
H1681       H  0.86664397  0.44992848  0.80726110     0.35300
H1682       H  0.89510499  0.45170547  0.78756585     0.40400
H1683       H  0.85896934  0.05171143  0.70399560     0.40000
H1684       H  0.86612721  0.06847719  0.73849452     0.34900
C1685       C  0.61220184  0.47561925  0.00383866    -0.26800
C1686       C  0.60911618  0.50405725  0.49916938    -0.14900
C1687       C  0.63194910  0.02868646  0.48957009     0.35800
C1688       C  0.65969636  0.02594839  0.48740100    -0.26200
C1689       C  0.66502194  0.49841524  0.49393351    -0.15500
C1690       C  0.64007673  0.47284115  0.00158080     0.36800
N1691       N  0.64418255  0.44493730  0.00771495    -0.89700
H1692       H  0.59404345  0.45666832  0.01016681     0.18000
H1693       H  0.67773852  0.04522517  0.48163100     0.19600
N1694       N  0.62771497  0.05657510  0.48363417    -0.88800
H1695       H  0.62420776  0.42876987  0.01178855     0.35300
H1696       H  0.65755085  0.44685080  0.02813680     0.40400
H1697       H  0.61320928  0.05434733  0.46404215     0.40000
H1698       H  0.64739222  0.07261736  0.47839098     0.34900
C1699       C  0.88650816  0.02087740  0.99513359    -0.26800
C1700       C  0.89078624  0.99384329  0.00155014    -0.14900
C1701       C  0.86456874  0.46732721  0.50746362     0.35800
C1702       C  0.83662921  0.46991754  0.50683853    -0.26200
C1703       C  0.83147256  0.49792632  0.00056514    -0.15500
C1704       C  0.85835258  0.02369696  0.99456372     0.36800
N1705       N  0.85475945  0.05164001  0.98723682    -0.89700
H1706       H  0.90511305  0.03972436  0.98971599     0.18000
H1707       H  0.81819767  0.45023339  0.51039345     0.18000
N1708       N  0.86701157  0.43883672  0.51370640    -0.88800
H1709       H  0.87464876  0.06702845  0.98148604     0.35300
H1710       H  0.84935597  0.05930851  0.00724845     0.40400
H1711       H  0.88270213  0.44033832  0.53209430     0.40000
H1712       H  0.87348241  0.43137075  0.49423681     0.34900
C1713       C  0.97025323  0.48991813  0.88799326    -0.26800
C1714       C  0.49376150  0.48910141  0.90881992    -0.14900
C1715       C  0.52494549  0.00207446  0.89826327     0.35800
C1716       C  0.52940504  0.01222403  0.86803128    -0.26200
C1717       C  0.50574850  0.01189077  0.84687969    -0.15500
C1718       C  0.97683616  0.00152723  0.85675469     0.36800
N1719       N  0.95187247  0.00078374  0.83604475    -0.89700
H1720       H  0.94804326  0.48217045  0.89522667     0.18000
H1721       H  0.55174447  0.02037207  0.86115898     0.18000
N1722       N  0.54740843  0.49952315  0.91940508    -0.88800
H1723       H  0.93057663  0.49326991  0.84832960     0.35300
H1724       H  0.94929030  0.98452427  0.81988212     0.40400
H1725       H  0.56376750  0.02496450  0.92040391     0.40000
H1726       H  0.56133740  0.99090735  0.90948889     0.34900
C1727       C  0.97939330  0.50885270  0.60858857    -0.26800
C1728       C  0.50609649  0.00958894  0.59656152    -0.14900
C1729       C  0.52337697  0.99506368  0.61397865     0.35800
C1730       C  0.51672829  0.98561658  0.64394965    -0.26200
C1731       C  0.49284311  0.49055418  0.65833420    -0.15500
C1732       C  0.97242412  0.49928462  0.63844310     0.36800
N1733       N  0.94463637  0.49924245  0.64769869    -0.89700
H1734       H  0.96331684  0.51528005  0.59388850     0.18000
H1735       H  0.53016223  0.97444300  0.65677013     0.18000
N1736       N  0.54729215  0.98876698  0.60181052    -0.88800
H1737       H  0.94819915  0.51250434  0.66700391     0.35300
H1738       H  0.93192599  0.47776278  0.65298641     0.40400
H1739       H  0.56372611  0.00847711  0.59716466     0.40000
H1740       H  0.53962329  0.97690100  0.58152513     0.34900
C1741       C  0.97428222  0.33841281  0.73513041    -0.26800
C1742       C  0.50043775  0.33406426  0.74700533    -0.14900
C1743       C  0.52429804  0.35857775  0.75774658     0.35800
C1744       C  0.52150008  0.38674089  0.75581448    -0.26200
C1745       C  0.49524014  0.39101968  0.74394834    -0.15500
C1746       C  0.97139150  0.36634403  0.73361710     0.36800
N1747       N  0.94385201  0.36924828  0.72206721    -0.89700
H1748       H  0.95570834  0.31993997  0.72685963     0.18000
H1749       H  0.53989535  0.40541025  0.76397909     0.18000
N1750       N  0.55105019  0.35486442  0.77113551    -0.88800
H1751       H  0.92752384  0.35619203  0.73567725     0.35300
H1752       H  0.93909724  0.36112053  0.69968328     0.40400
H1753       H  0.54613870  0.34278782  0.79153366     0.40000
H1754       H  0.56652650  0.37511866  0.77733615     0.34900
C1755       C  0.53192739  0.16404718  0.76132794    -0.26800
C1756       C  0.50496407  0.16828750  0.75273447    -0.14900
C1757       C  0.97976407  0.14338266  0.74625779     0.35800
C1758       C  0.98239369  0.11520354  0.74825305    -0.26200
C1759       C  0.00930480  0.11104276  0.75735126    -0.15500
C1760       C  0.53439765  0.13606094  0.76391872     0.36800
N1761       N  0.56294215  0.13409793  0.77262214    -0.89700
H1762       H  0.55149671  0.18270733  0.76643016     0.18000
H1763       H  0.96306108  0.09628666  0.74320757     0.18000
N1764       N  0.95162224  0.14653725  0.73745407    -0.88800
H1765       H  0.56865902  0.12247878  0.75584120     0.35300
H1766       H  0.56244812  0.12323652  0.79382416     0.40400
H1767       H  0.94424160  0.15301790  0.75696601     0.40000
H1768       H  0.93613104  0.12631384  0.73116923     0.34900
C1769       C  0.97997628  0.23401130  0.88981018    -0.26800
C1770       C  0.50508770  0.25202027  0.90669178    -0.14900
C1771       C  0.52929166  0.26942627  0.89074963     0.35800
C1772       C  0.52794162  0.26804656  0.85855667    -0.26200
C1773       C  0.50287182  0.25004438  0.84166694    -0.15500
C1774       C  0.97866301  0.23258997  0.85758292     0.36800
N1775       N  0.95306943  0.21306461  0.84117503    -0.89700
H1776       H  0.96143154  0.22042093  0.90185817     0.18000
H1777       H  0.54649626  0.28165456  0.84653340     0.18000
N1778       N  0.55499165  0.28884247  0.90710770    -0.88800
H1779       H  0.93712948  0.20222081  0.85628100     0.35300
H1780       H  0.95941107  0.19687630  0.83133390     0.40400
H1781       H  0.54880013  0.30513969  0.91692648     0.40000
H1782       H  0.57096991  0.29955984  0.89199347     0.34900
C1783       C  0.52932583  0.25027774  0.64410028    -0.26800
C1784       C  0.50431571  0.25256226  0.65671353    -0.14900
C1785       C  0.98086203  0.25525054  0.63644687     0.35800
C1786       C  0.98287641  0.25530434  0.60464178    -0.26200
C1787       C  0.50777552  0.25280782  0.59199735    -0.15500
C1788       C  0.53133324  0.25031196  0.61226801     0.36800
N1789       N  0.55725175  0.24695703  0.60147601    -0.89700
H1790       H  0.54748391  0.24804813  0.65912395     0.18000
H1791       H  0.96471165  0.25755346  0.58964708     0.18000
N1792       N  0.95499853  0.25873597  0.64722842    -0.88800
H1793       H  0.56826979  0.26581724  0.58918812     0.35300
H1794       H  0.55107784  0.22877259  0.58706060     0.40400
H1795       H  0.96125954  0.27677327  0.66185413     0.40000
H1796       H  0.94374254  0.23979939  0.65926343     0.34900
C1797       C  0.98099355  0.33910490  0.97655787    -0.26800
C1798       C  0.50324275  0.33371905  0.99597001    -0.14900
C1799       C  0.52311651  0.35686124  0.01346439     0.35800
C1800       C  0.51956592  0.38469224  0.01192430    -0.26200
C1801       C  0.49675242  0.39002187  0.99300739    -0.15500
C1802       C  0.97784685  0.36698220  0.97429118     0.36800
N1803       N  0.95551292  0.37174788  0.95295544    -0.89700
H1804       H  0.96617802  0.32144902  0.96260842     0.18000
H1805       H  0.53666134  0.40316573  0.52529987     0.18000
N1806       N  0.54876501  0.35301684  0.53237843    -0.88800
H1807       H  0.94292068  0.35226724  0.94196919     0.35300
H1808       H  0.96620121  0.38596265  0.93573953     0.40400
H1809       H  0.53890217  0.33815045  0.54949661     0.40000
H1810       H  0.56149503  0.37234698  0.54354622     0.34900
C1811       C  0.98106337  0.14521606  0.49986221    -0.26800
C1812       C  0.00792357  0.16838778  0.50391064    -0.14900
C1813       C  0.53405177  0.16148019  0.51015732     0.35800
C1814       C  0.53284975  0.13209910  0.51218720    -0.26200
C1815       C  0.00609627  0.10899983  0.50808667    -0.15500
C1816       C  0.97984149  0.11565871  0.50202737     0.36800
N1817       N  0.95203128  0.09252365  0.49866142    -0.89700
H1818       H  0.96079178  0.15009490  0.49518448     0.18000
H1819       H  0.55324199  0.12738555  0.51673341     0.18000
N1820       N  0.56197124  0.18409028  0.51469629    -0.88800
H1821       H  0.93489093  0.10113320  0.49404266     0.35300
H1822       H  0.94851176  0.08150976  0.51981340     0.40400
H1823       H  0.57562196  0.18148726  0.49841564     0.40000
H1824       H  0.57128920  0.18117558  0.53654063     0.34900
O1825       O  0.52902814  0.75888106  0.45870699    -0.74900
O1826       O  0.53032619  0.75957460  0.04600656    -0.74900
O1827       O  0.53020127  0.71959812  0.00411304    -0.75000
O1828       O  0.52843654  0.79898166  0.50043429    -0.75000
O1829       O  0.97949297  0.78169588  0.49643511    -0.75000
O1830       O  0.98127190  0.70283249  0.00113839    -0.74900
O1831       O  0.98143929  0.74289717  0.04297231    -0.74900
O1832       O  0.98015989  0.74153481  0.45504892    -0.75000
Ni1833     Ni  0.53097379  0.76004907  0.50264628     1.25400
Ni1834     Ni  0.97896209  0.74167619  0.99896797     1.25400
C1835       C  0.00461703  0.75019105  0.44229329     0.87300
C1836       C  0.00610009  0.75137840  0.05905902     0.87200
C1837       C  0.50595086  0.69814129  0.00358042     0.87200
C1838       C  0.50357368  0.80332983  0.49780746     0.87400
O1839       O  0.97854265  0.70325613  0.24952184    -0.74900
O1840       O  0.97806354  0.78244116  0.24734406    -0.74900
O1841       O  0.97842173  0.74340494  0.20456962    -0.75000
O1842       O  0.97816275  0.74216637  0.29234662    -0.75000
O1843       O  0.52705489  0.75892031  0.29618761    -0.75000
O1844       O  0.52729063  0.75961246  0.20838408    -0.74900
O1845       O  0.52694461  0.79897175  0.25090567    -0.74900
O1846       O  0.52739516  0.71979959  0.25369242    -0.75000
Ni1847     Ni  0.97656605  0.74227128  0.24829937     1.25400
Ni1848     Ni  0.52890723  0.75992311  0.25242089     1.25400
C1849       C  0.50310275  0.69837768  0.25222719     0.87300
C1850       C  0.50236255  0.80384976  0.24870677     0.87200
C1851       C  0.50284874  0.75166033  0.19189519     0.87200
C1852       C  0.50256697  0.75003907  0.30884946     0.87400
O1853       O  0.91976751  0.96880995  0.48622005    -0.81400
O1854       O  0.55624996  0.98572311  0.49465212    -0.66100
O1855       O  0.97902819  0.97662960  0.00923930    -1.12700
C1856       C  0.00638076  0.57784602  0.01118222     1.05500
O1857       O  0.57859671  0.52895038  0.01665129    -0.79300
O1858       O  0.53638351  0.52492394  0.05634809    -0.66800
Ni1859     Ni  0.94791078  0.94919028  0.48265979     1.34900
C1860       C  0.51072094  0.51887524  0.06539119     0.84300
O1861       O  0.51095512  0.94010443  0.50891957    -0.79800
O1862       O  0.97118055  0.92421371  0.47714304    -0.90100
C1863       C  0.58135800  0.00721747  0.00272593     0.83800
O1864       O  0.96219633  0.97251049  0.44765056    -0.68300
O1865       O  0.52707858  0.57299203  0.02797449    -0.87600
C1866       C  0.48817565  0.97866542  0.43942056     0.84700
C1867       C  0.49245747  0.91970436  0.49321197     1.06200
H1868       H  0.52458299  0.52717114  0.47428588     0.38000
O1869       O  0.52144500  0.52145854  0.49550487    -1.10200
O1870       O  0.98931419  0.52157995  0.04758173    -0.66900
Ni1871     Ni  0.98113083  0.51650601  0.00335207     1.26300
O1872       O  0.50883590  0.97529194  0.45765925    -0.67100
O1873       O  0.98722050  0.55734095  0.99619257    -0.79400
C1874       C  0.91896562  0.49028002  0.50027856     0.84000
O1875       O  0.94093590  0.51135841  0.00963152    -0.66600
Ni1876     Ni  0.55028597  0.54828423  0.02143758     1.27400
Ni1877     Ni  0.51655033  0.98076708  0.50165344     1.26100
H1878       H  0.97558749  0.97069339  0.03036300     0.38600
O1879       O  0.92264383  0.96931043  0.23908374    -0.81400
O1880       O  0.56047868  0.98907193  0.24342411    -0.66100
O1881       O  0.98096790  0.97848930  0.25891197    -1.12700
C1882       C  0.01028729  0.58043382  0.26049901     1.05500
O1883       O  0.58058079  0.52872281  0.27092015    -0.79300
O1884       O  0.53757626  0.52670775  0.30822005    -0.66800
Ni1885     Ni  0.95148892  0.95099309  0.23305855     1.34900
C1886       C  0.51161931  0.52147727  0.31616072     0.84300
O1887       O  0.51501787  0.94243007  0.25730809    -0.79800
O1888       O  0.97532492  0.92714867  0.22536680    -0.90100
C1889       C  0.58320896  0.00881123  0.25473758     0.83800
O1890       O  0.96469273  0.97535015  0.19838642    -0.68300
O1891       O  0.53061724  0.57545576  0.27782587    -0.87600
C1892       C  0.49043920  0.98179564  0.18936636     0.84700
C1893       C  0.49583361  0.92206441  0.24222453     1.06200
H1894       H  0.52769875  0.52948566  0.22553141     0.38000
O1895       O  0.52390783  0.52328273  0.24651489    -1.10200
O1896       O  0.99139316  0.52520430  0.29754904    -0.66900
Ni1897     Ni  0.98441159  0.51923974  0.25353079     1.26300
O1898       O  0.51196523  0.97884511  0.20671530    -0.67100
O1899       O  0.99087371  0.55994622  0.24568980    -0.79400
C1900       C  0.92127903  0.49358673  0.25266126     0.84000
O1901       O  0.94448147  0.51484342  0.25945467    -0.66600
Ni1902     Ni  0.55316129  0.54958684  0.27345059     1.27400
Ni1903     Ni  0.52054329  0.98320309  0.25091922     1.26100
H1904       H  0.97788036  0.97265896  0.28009981     0.38600
O1905       O  0.79614583  0.52183090  0.49721829    -0.74900
O1906       O  0.71684166  0.52170623  0.49348811    -0.74900
O1907       O  0.75652864  0.52158702  0.03950029    -0.75000
O1908       O  0.75485305  0.52167757  0.45117054    -0.75000
O1909       O  0.73955270  0.97477195  0.45120456    -0.75000
O1910       O  0.74280535  0.97525609  0.03963646    -0.74900
O1911       O  0.70217409  0.97472826  0.99309545    -0.74900
O1912       O  0.78171454  0.97488773  0.99841710    -0.75000
Ni1913     Ni  0.75698824  0.52345474  0.49521561     1.25400
Ni1914     Ni  0.74137363  0.97303428  0.99571647     1.25400
C1915       C  0.80125247  0.99918097  0.49855948     0.87300
C1916       C  0.69713912  0.99917243  0.99269759     0.87200
C1917       C  0.75122086  0.99969388  0.05386629     0.87200
C1918       C  0.74700720  0.99936287  0.43666410     0.87400
O1919       O  0.71944355  0.52420962  0.24396635    -0.74900
O1920       O  0.79895398  0.52477812  0.24893138    -0.74900
O1921       O  0.75833398  0.52472366  0.20232191    -0.75000
O1922       O  0.75979948  0.52402452  0.29044332    -0.75000
O1923       O  0.74498237  0.97648709  0.29008328    -0.75000
O1924       O  0.74404595  0.97788236  0.20199731    -0.74900
O1925       O  0.78409965  0.97675165  0.24892898    -0.74900
O1926       O  0.70484852  0.97745875  0.24357565    -0.75000
Ni1927     Ni  0.75968915  0.52615832  0.24636415     1.25400
Ni1928     Ni  0.74391390  0.97541396  0.24606638     1.25400
C1929       C  0.69993908  0.00192905  0.24360500     0.87300
C1930       C  0.80551560  0.00101773  0.24987178     0.87200
C1931       C  0.75247889  0.00251400  0.18751323     0.87200
C1932       C  0.75345392  0.00075129  0.30468409     0.87400
C1933       C  0.76042327  0.98119943  0.38973343    -0.26800
C1934       C  0.74737033  0.99956252  0.40275869    -0.14900
C1935       C  0.73426464  0.51521483  0.38372488     0.35800
C1936       C  0.73770254  0.51624669  0.35204020    -0.26200
C1937       C  0.75291925  0.00046492  0.33855930    -0.15500
C1938       C  0.76381866  0.98167586  0.35807340     0.36800
N1939       N  0.77928938  0.96358610  0.34704324    -0.89700
H1940       H  0.76912742  0.96701649  0.40452629     0.18000
H1941       H  0.72821918  0.52993620  0.33740334     0.18000
N1942       N  0.71755780  0.53194436  0.39505339    -0.88800
H1943       H  0.80016054  0.96975758  0.35868312     0.35300
H1944       H  0.78312905  0.96755155  0.32388622     0.40400
H1945       H  0.71389628  0.52749495  0.41820412     0.40000
H1946       H  0.69667579  0.52488062  0.38344442     0.34900
C1947       C  0.76558561  0.52265743  0.10408886    -0.26800
C1948       C  0.75129516  0.99998291  0.08807005    -0.14900
C1949       C  0.73298738  0.97639197  0.10513457     0.35800
C1950       C  0.73381170  0.97806221  0.13717369    -0.26200
C1951       C  0.75241182  0.00271367  0.15329649    -0.15500
C1952       C  0.76645333  0.52458100  0.13610868     0.36800
N1953       N  0.78517575  0.55128130  0.15008112    -0.89700
H1954       H  0.77880049  0.54145608  0.09144528     0.18000
H1955       H  0.71946228  0.95978548  0.14956907     0.18000
N1956       N  0.71270977  0.95065696  0.09076806    -0.88800
H1957       H  0.80017818  0.54641928  0.16621181     0.35300
H1958       H  0.77231513  0.56101260  0.16099861     0.40400
H1959       H  0.72444600  0.93954399  0.08004489     0.40000
H1960       H  0.69880228  0.95696001  0.07443646     0.34900
C1961       C  0.61616976  0.97984121  0.24588732    -0.26800
C1962       C  0.61282810  0.00713944  0.25047994    -0.14900
C1963       C  0.63667960  0.53076437  0.25307345     0.35800
C1964       C  0.66430973  0.52797934  0.25031653    -0.26200
C1965       C  0.66937343  0.00270116  0.24458482    -0.15500
C1966       C  0.64392567  0.97724813  0.24322382     0.36800
N1967       N  0.64526662  0.94839422  0.23946324    -0.89700
H1968       H  0.59709779  0.96013469  0.24514025     0.18000
H1969       H  0.68352021  0.54743500  0.25291272     0.18000
N1970       N  0.63451983  0.55925475  0.25806728    -0.88800
H1971       H  0.65769701  0.94336458  0.25822944     0.35300
H1972       H  0.65513081  0.94792097  0.21913336     0.40400
H1973       H  0.62332399  0.56476353  0.23853109     0.40000
H1974       H  0.65531093  0.57527061  0.25998463     0.34900
C1975       C  0.84166783  0.97532520  0.26453163    -0.26800
C1976       C  0.83488060  0.50028023  0.25269163    -0.14900
C1977       C  0.85823746  0.52359662  0.24142475     0.35800
C1978       C  0.88670552  0.52166900  0.24324241    -0.26200
C1979       C  0.89238596  0.49687487  0.25618222    -0.15500
C1980       C  0.86994204  0.97309429  0.26634521     0.36800
N1981       N  0.87412628  0.94749096  0.28121115    -0.89700
H1982       H  0.82395931  0.95739853  0.27347760     0.18000
H1983       H  0.90418377  0.53908038  0.23323840     0.18000
N1984       N  0.85301088  0.54869657  0.22693415    -0.88800
H1985       H  0.86730380  0.94643537  0.30348590     0.35300
H1986       H  0.89630087  0.94941391  0.28424137     0.40400
H1987       H  0.85945562  0.55030928  0.20445831     0.40000
H1988       H  0.86637814  0.56736274  0.23878571     0.34900
C1989       C  0.61252527  0.97659094  0.50137273    -0.26800
C1990       C  0.61028427  0.00466857  0.99758967    -0.14900
C1991       C  0.63134500  0.52752928  0.99104574     0.35800
C1992       C  0.65900438  0.52475681  0.98846095    -0.26200
C1993       C  0.66655263  0.99978926  0.99282350    -0.15500
C1994       C  0.64046202  0.97384500  0.49954983     0.36800
N1995       N  0.64439537  0.94582590  0.50535488    -0.89700
H1996       H  0.59423993  0.95753854  0.50718929     0.18000
H1997       H  0.67689838  0.54394802  0.98217333     0.19600
N1998       N  0.62697304  0.55532195  0.98484766    -0.88800
H1999       H  0.62427728  0.92958267  0.50870868     0.35300
H2000       H  0.65724430  0.94731962  0.52608730     0.40400
H2001       H  0.61216828  0.55280089  0.96546907     0.40000
H2002       H  0.64652165  0.57130067  0.97914756     0.34900
C2003       C  0.88509101  0.51977642  0.49834129    -0.26800
C2004       C  0.88927033  0.49244727  0.50257386    -0.14900
C2005       C  0.86634086  0.96922310  0.00845177     0.35800
C2006       C  0.83846525  0.97196831  0.00793052    -0.26200
C2007       C  0.83202592  0.99873023  0.50067290    -0.15500
C2008       C  0.85686429  0.52243942  0.49774117     0.36800
N2009       N  0.85346724  0.55078861  0.49287596    -0.89700
H2010       H  0.90384907  0.53905387  0.49463879     0.18000
H2011       H  0.82019067  0.95268108  0.01316694     0.18000
N2012       N  0.86906016  0.94117146  0.01669297    -0.88800
H2013       H  0.87360631  0.56671226  0.48885908     0.35300
H2014       H  0.84714575  0.55661616  0.51337969     0.40400
H2015       H  0.88518943  0.94388829  0.03486272     0.40000
H2016       H  0.87520226  0.93249852  0.99780887     0.34900
C2017       C  0.97106602  0.98984173  0.38641248    -0.26800
C2018       C  0.49445905  0.98949515  0.40761244    -0.14900
C2019       C  0.52400764  0.50187965  0.39966548     0.35800
C2020       C  0.52864552  0.51213246  0.36952455    -0.26200
C2021       C  0.50505962  0.51114759  0.34804126    -0.15500
C2022       C  0.97598870  0.49978691  0.35738410     0.36800
N2023       N  0.95110252  0.49845084  0.33630638    -0.89700
H2024       H  0.94876378  0.98188918  0.39338097     0.18000
H2025       H  0.55108167  0.52104060  0.36303609     0.18000
N2026       N  0.54815431  0.00098230  0.41905520    -0.88800
H2027       H  0.93166350  0.99272810  0.34616538     0.35300
H2028       H  0.94924744  0.48243410  0.32010232     0.40400
H2029       H  0.56202156  0.52604940  0.42234179     0.40000
H2030       H  0.56120743  0.49239138  0.41175086     0.34900
C2031       C  0.98880827  0.02056806  0.11224795    -0.26800
C2032       C  0.50542695  0.50899182  0.09769291    -0.14900
C2033       C  0.52648443  0.50136751  0.11776923     0.35800
C2034       C  0.51987841  0.49193804  0.14768129    -0.26200
C2035       C  0.49557640  0.99176767  0.15736384    -0.15500
C2036       C  0.98265142  0.01152052  0.14247077     0.36800
N2037       N  0.96400174  0.02348489  0.15765749    -0.89700
H2038       H  0.97894894  0.03585426  0.10112212     0.18000
H2039       H  0.53644349  0.48626705  0.16236923     0.18000
N2040       N  0.55470866  0.50252826  0.10875200    -0.88800
H2041       H  0.97525696  0.03343120  0.17797747     0.35300
H2042       H  0.94509090  0.00647503  0.16304675     0.40400
H2043       H  0.56670654  0.52418112  0.10322802     0.40000
H2044       H  0.55183525  0.48901485  0.08976934     0.34900
C2045       C  0.97513837  0.83906830  0.23734486    -0.26800
C2046       C  0.50164569  0.83446278  0.24732272    -0.14900
C2047       C  0.52654910  0.85905055  0.25568510     0.35800
C2048       C  0.52429753  0.88743400  0.25340639    -0.26200
C2049       C  0.49769239  0.89189456  0.24337417    -0.15500
C2050       C  0.97286733  0.86724394  0.23547963     0.36800
N2051       N  0.94494399  0.87048300  0.22624800    -0.89700
H2052       H  0.95576452  0.82061973  0.23092701     0.18000
H2053       H  0.54342769  0.90616332  0.25971422     0.18000
N2054       N  0.55390137  0.85526033  0.26687878    -0.88800
H2055       H  0.92976290  0.85836128  0.24153299     0.35300
H2056       H  0.93814987  0.86147850  0.20437827     0.40400
H2057       H  0.55059870  0.84424069  0.28804367     0.40000
H2058       H  0.57009598  0.87556269  0.27124215     0.34900
C2059       C  0.53089255  0.66367050  0.26303328    -0.26800
C2060       C  0.50392631  0.66780768  0.25418849    -0.14900
C2061       C  0.97890945  0.64286554  0.24731445     0.35800
C2062       C  0.98167300  0.61470816  0.24941223    -0.26200
C2063       C  0.00863095  0.61066960  0.25871103    -0.15500
C2064       C  0.53356929  0.63578214  0.26544587     0.36800
N2065       N  0.56222519  0.63404339  0.27400278    -0.89700
H2066       H  0.55037343  0.68236545  0.26834620     0.18000
H2067       H  0.96245808  0.59573638  0.24414246     0.18000
N2068       N  0.95088556  0.64598723  0.23781751    -0.88800
H2069       H  0.56802574  0.62260419  0.25710977     0.35300
H2070       H  0.56190455  0.62314296  0.29516261     0.40400
H2071       H  0.94308094  0.65247015  0.25703965     0.40000
H2072       H  0.93554534  0.62574656  0.23132557     0.34900
C2073       C  0.97928047  0.73299522  0.39090285    -0.26800
C2074       C  0.50457893  0.75012059  0.40816125    -0.14900
C2075       C  0.52935213  0.76679658  0.39250721     0.35800
C2076       C  0.52814172  0.76594598  0.36026536    -0.26200
C2077       C  0.50272561  0.74915551  0.34298897    -0.15500
C2078       C  0.97813598  0.73206938  0.35861778     0.36800
N2079       N  0.95222819  0.71347002  0.34183679    -0.89700
H2080       H  0.96035195  0.71984181  0.40267934     0.18000
H2081       H  0.54709258  0.77909232  0.34851720     0.18000
N2082       N  0.55552717  0.78502562  0.40919698    -0.88800
H2083       H  0.93603064  0.70279925  0.35673696     0.35300
H2084       H  0.95797399  0.69706528  0.33164253     0.40400
H2085       H  0.55029581  0.80189959  0.41908105     0.40000
H2086       H  0.57192016  0.79511404  0.39430525     0.34900
C2087       C  0.52842990  0.75034574  0.14501263    -0.26800
C2088       C  0.50316276  0.75173717  0.15783719    -0.14900
C2089       C  0.97917489  0.75340065  0.13773475     0.35800
C2090       C  0.98100887  0.75350052  0.10592334    -0.26200
C2091       C  0.50617485  0.75192027  0.09309819    -0.15500
C2092       C  0.53022527  0.75036227  0.11316538     0.36800
N2093       N  0.55647495  0.74797511  0.10216473    -0.89700
H2094       H  0.54699183  0.74886137  0.15987473     0.18000
H2095       H  0.96243832  0.75498409  0.09107235     0.18000
N2096       N  0.95284239  0.75565326  0.14865462    -0.88800
H2097       H  0.56682856  0.76696313  0.08971366     0.35300
H2098       H  0.55081649  0.72973276  0.08787934     0.40400
H2099       H  0.95839508  0.77375100  0.16312743     0.40000
H2100       H  0.94236327  0.73652210  0.16082786     0.34900
C2101       C  0.97819201  0.83833641  0.47913684    -0.26800
C2102       C  0.50215342  0.83356516  0.49602887    -0.14900
C2103       C  0.52356333  0.85736317  0.51127158     0.35800
C2104       C  0.52025242  0.88531526  0.50948787    -0.26200
C2105       C  0.49597398  0.89010290  0.49283845    -0.15500
C2106       C  0.97494814  0.86617613  0.47697983     0.36800
N2107       N  0.95016713  0.86989731  0.45884763    -0.89700
H2108       H  0.96192853  0.82016678  0.46712152     0.18000
H2109       H  0.53911543  0.90372934  0.01993328     0.18000
N2110       N  0.55013203  0.85310048  0.02774827    -0.88800
H2111       H  0.93595344  0.84977639  0.45051543     0.35300
H2112       H  0.95821746  0.88249721  0.43950688     0.40400
H2113       H  0.54248162  0.83968118  0.04671012     0.40000
H2114       H  0.56448217  0.87296983  0.03652676     0.34900
C2115       C  0.98116294  0.64453529  0.99494363    -0.26800
C2116       C  0.00618763  0.66745798  0.00586602    -0.14900
C2117       C  0.53064320  0.66056225  0.01937946     0.35800
C2118       C  0.52990047  0.63130033  0.02109702    -0.26200
C2119       C  0.00505827  0.60827802  0.00980250    -0.15500
C2120       C  0.98020428  0.61506820  0.99693127     0.36800
N2121       N  0.95397442  0.59216959  0.98622244    -0.89700
H2122       H  0.96216351  0.64959913  0.98476900     0.18000
H2123       H  0.54917357  0.62671929  0.03124908     0.18000
N2124       N  0.55613789  0.68307268  0.03200059    -0.88800
H2125       H  0.93804216  0.60095159  0.97677687     0.35300
H2126       H  0.94528175  0.57979497  0.00545796     0.40400
H2127       H  0.57430079  0.68240788  0.02093903     0.40000
H2128       H  0.55942551  0.67828110  0.05530208     0.34900
O2129       O  0.52888316  0.75877838  0.95818606    -0.74900
O2130       O  0.52961619  0.76006001  0.54631825    -0.74900
O2131       O  0.52989591  0.71993938  0.50474962    -0.75000
O2132       O  0.52900596  0.79872115  0.00034571    -0.75000
O2133       O  0.98005427  0.78164884  0.99702299    -0.75000
O2134       O  0.98104108  0.70297532  0.50158347    -0.74900
O2135       O  0.98073166  0.74338181  0.54297967    -0.74900
O2136       O  0.97996247  0.74172934  0.95515933    -0.75000
Ni2137     Ni  0.53135761  0.75974107  0.00222551     1.25400
Ni2138     Ni  0.97861763  0.74179197  0.49889369     1.25400
C2139       C  0.00422138  0.75041779  0.94210408     0.87300
C2140       C  0.00533319  0.75194361  0.55921360     0.87200
C2141       C  0.50574193  0.69834711  0.50404307     0.87200
C2142       C  0.50421399  0.80320348  0.99816076     0.87400
O2143       O  0.97744041  0.70312366  0.74937267    -0.74900
O2144       O  0.97653323  0.78210341  0.74734190    -0.74900
O2145       O  0.97746884  0.74346927  0.70449569    -0.75000
O2146       O  0.97661955  0.74189736  0.79226315    -0.75000
O2147       O  0.52554295  0.75901356  0.79631679    -0.75000
O2148       O  0.52636195  0.75982912  0.70864395    -0.74900
O2149       O  0.52544777  0.79896458  0.75115757    -0.74900
O2150       O  0.52631816  0.71984020  0.75397179    -0.75000
Ni2151     Ni  0.97528526  0.74206828  0.74820376     1.25400
Ni2152     Ni  0.52765910  0.75998982  0.75265492     1.25400
C2153       C  0.50205888  0.69835273  0.75228038     0.87300
C2154       C  0.50074622  0.80361401  0.74891502     0.87200
C2155       C  0.50200988  0.75200383  0.69200838     0.87200
C2156       C  0.50099743  0.75016208  0.80883706     0.87400
O2157       O  0.92151976  0.96843746  0.98695611    -0.81400
O2158       O  0.55828138  0.98639532  0.99451674    -0.66100
O2159       O  0.97701489  0.97636156  0.50909071    -1.12700
C2160       C  0.00672416  0.57817499  0.51072578     1.05500
O2161       O  0.57959059  0.52997233  0.51631664    -0.79300
O2162       O  0.53746828  0.52602814  0.55619767    -0.66800
Ni2163     Ni  0.95003828  0.94942363  0.98271880     1.34900
C2164       C  0.51178575  0.51989017  0.56524715     0.84300
O2165       O  0.51304330  0.94049236  0.00876070    -0.79800
O2166       O  0.97368042  0.92501665  0.97645312    -0.90100
C2167       C  0.57939077  0.00658909  0.50255517     0.83800
O2168       O  0.96412805  0.97343937  0.94810125    -0.68300
O2169       O  0.52772332  0.57365968  0.52726747    -0.87600
C2170       C  0.49007227  0.97979674  0.93968305     0.84700
C2171       C  0.49450620  0.92016741  0.99298643     1.06200
H2172       H  0.52393451  0.52652542  0.97460431     0.38000
O2173       O  0.52063598  0.52082593  0.99580161    -1.10200
O2174       O  0.99025184  0.52210859  0.54736852    -0.66900
Ni2175     Ni  0.98186645  0.51672895  0.50329399     1.26300
O2176       O  0.51078405  0.97605078  0.95758753    -0.67100
O2177       O  0.98736210  0.55750212  0.49612070    -0.79400
C2178       C  0.91811301  0.49078100  0.99983099     0.84000
O2179       O  0.94165770  0.51103488  0.51002943    -0.66600
Ni2180     Ni  0.55108961  0.54910771  0.52095963     1.27400
Ni2181     Ni  0.51858277  0.98121127  0.00165167     1.26100
H2182       H  0.97352707  0.97039411  0.53019320     0.38600
O2183       O  0.92116189  0.97078698  0.73960439    -0.81400
O2184       O  0.55810504  0.98732721  0.74295034    -0.66100
O2185       O  0.97929031  0.97869277  0.75956479    -1.12700
C2186       C  0.00917408  0.58019842  0.76079857     1.05500
O2187       O  0.57935744  0.52828019  0.77065354    -0.79300
O2188       O  0.53624295  0.52600759  0.80803371    -0.66800
Ni2189     Ni  0.94910758  0.95118850  0.73435392     1.34900
C2190       C  0.51026202  0.52069647  0.81595586     0.84300
O2191       O  0.51242122  0.94172433  0.75818458    -0.79800
O2192       O  0.97189816  0.92613508  0.72741395    -0.90100
C2193       C  0.58121787  0.00702745  0.75349402     0.83800
O2194       O  0.96234067  0.97420639  0.69889347    -0.68300
O2195       O  0.52943405  0.57500326  0.77804340    -0.87600
C2196       C  0.48793313  0.98024282  0.68961956     0.84700
C2197       C  0.49289915  0.92125736  0.74359856     1.06200
H2198       H  0.52659790  0.52922600  0.72537496     0.38000
O2199       O  0.52271712  0.52292203  0.74631580    -1.10200
O2200       O  0.99003803  0.52444747  0.79732386    -0.66900
Ni2201     Ni  0.98321212  0.51896526  0.75318504     1.26300
O2202       O  0.50944362  0.97741782  0.70706752    -0.67100
O2203       O  0.98984172  0.55980916  0.74576101    -0.79400
C2204       C  0.92006669  0.49352263  0.75153149     0.84000
O2205       O  0.94326259  0.51457113  0.75895766    -0.66600
Ni2206     Ni  0.55192243  0.54909828  0.77341753     1.27400
Ni2207     Ni  0.51853685  0.98246631  0.75111395     1.26100
H2208       H  0.97643852  0.97318392  0.78085960     0.38600
O2209       O  0.79535564  0.52254282  0.99753531    -0.74900
O2210       O  0.71572227  0.52176499  0.99360377    -0.74900
O2211       O  0.75782652  0.52173076  0.53930824    -0.75000
O2212       O  0.75432148  0.52277321  0.95142692    -0.75000
O2213       O  0.74093908  0.97416131  0.95167621    -0.75000
O2214       O  0.74080596  0.97393931  0.53919004    -0.74900
O2215       O  0.70029145  0.97407674  0.49268385    -0.74900
O2216       O  0.77999917  0.97475440  0.49793209    -0.75000
Ni2217     Ni  0.75603890  0.52388082  0.99547617     1.25400
Ni2218     Ni  0.73960718  0.97265007  0.49520914     1.25400
C2219       C  0.80302643  0.99924957  0.99840837     0.87300
C2220       C  0.69517109  0.99846211  0.49270975     0.87200
C2221       C  0.74914535  0.99815593  0.55382227     0.87200
C2222       C  0.74800883  0.99846077  0.93661423     0.87400
O2223       O  0.71842192  0.52471572  0.74290842    -0.74900
O2224       O  0.79805568  0.52526101  0.74873303    -0.74900
O2225       O  0.75792185  0.52518943  0.70178377    -0.75000
O2226       O  0.75858562  0.52485355  0.78981650    -0.75000
O2227       O  0.74350522  0.97544537  0.78967338    -0.75000
O2228       O  0.74255656  0.97674362  0.70180311    -0.74900
O2229       O  0.78298493  0.97669844  0.74863710    -0.74900
O2230       O  0.70307607  0.97578970  0.74310770    -0.75000
Ni2231     Ni  0.75877990  0.52673342  0.74575938     1.25400
Ni2232     Ni  0.74247583  0.97443994  0.74574597     1.25400
C2233       C  0.69779786  0.00010676  0.74278690     0.87300
C2234       C  0.80405761  0.00126033  0.74953521     0.87200
C2235       C  0.75060168  0.00130268  0.68722133     0.87200
C2236       C  0.75171592  0.99965569  0.80430109     0.87400
C2237       C  0.76035056  0.97999591  0.88917029    -0.26800
C2238       C  0.74725006  0.99806747  0.90263862    -0.14900
C2239       C  0.73483018  0.51762819  0.88362674     0.35800
C2240       C  0.73784158  0.51827449  0.85184504    -0.26200
C2241       C  0.75155863  0.99912311  0.83821901    -0.15500
C2242       C  0.76313054  0.98054941  0.85736555     0.36800
N2243       N  0.77872116  0.96281037  0.84581506    -0.89700
H2244       H  0.76967310  0.96611370  0.90370275     0.18000
H2245       H  0.72882095  0.53237345  0.83728654     0.18000
N2246       N  0.71932664  0.53548492  0.89508896    -0.88800
H2247       H  0.79974084  0.96917498  0.85712544     0.35300
H2248       H  0.78220956  0.96692862  0.82260256     0.40400
H2249       H  0.71566072  0.53127668  0.91825619     0.40000
H2250       H  0.69837774  0.52929096  0.88362116     0.34900
C2251       C  0.76870185  0.52184448  0.60431643    -0.26800
C2252       C  0.74954786  0.99812912  0.58800140    -0.14900
C2253       C  0.73187660  0.97424038  0.60517578     0.35800
C2254       C  0.73262307  0.97610993  0.63718050    -0.26200
C2255       C  0.75058916  0.00122777  0.65308452    -0.15500
C2256       C  0.76933319  0.52371973  0.63634254     0.36800
N2257       N  0.79028143  0.54895787  0.65089198    -0.89700
H2258       H  0.78368741  0.53963911  0.59191591     0.18000
H2259       H  0.71870057  0.95764642  0.64970575     0.18000
N2260       N  0.71237556  0.94801154  0.59097370    -0.88800
H2261       H  0.80352253  0.54197538  0.66743235     0.35300
H2262       H  0.77904429  0.56065409  0.66150757     0.40400
H2263       H  0.72471449  0.93762079  0.58014308     0.40000
H2264       H  0.69793690  0.95361825  0.57472189     0.34900
C2265       C  0.61394531  0.97768932  0.74470209    -0.26800
C2266       C  0.61053828  0.00509957  0.74843714    -0.14900
C2267       C  0.63522178  0.53074086  0.75158302     0.35800
C2268       C  0.66292930  0.52822404  0.74852638    -0.26200
C2269       C  0.66710276  0.00068603  0.74299311    -0.15500
C2270       C  0.64175471  0.97514265  0.74208992     0.36800
N2271       N  0.64328044  0.94629746  0.73881474    -0.89700
H2272       H  0.59494616  0.95793841  0.74466208     0.18000
H2273       H  0.68199022  0.54787467  0.75045149     0.18000
N2274       N  0.63275749  0.55919786  0.75602146    -0.88800
H2275       H  0.65583574  0.94162032  0.75767114     0.35300
H2276       H  0.65316501  0.94564476  0.71854142     0.40400
H2277       H  0.62106531  0.56410212  0.73653879     0.40000
H2278       H  0.65342309  0.57544043  0.75728722     0.34900
C2279       C  0.84098117  0.97700716  0.76566379    -0.26800
C2280       C  0.83384544  0.50056205  0.75224858    -0.14900
C2281       C  0.85701155  0.52347306  0.74013976     0.35800
C2282       C  0.88543110  0.52144760  0.74173233    -0.26200
C2283       C  0.89118834  0.49682024  0.75501661    -0.15500
C2284       C  0.86944289  0.97531524  0.76785283     0.36800
N2285       N  0.87418173  0.95046915  0.78387580    -0.89700
H2286       H  0.82354317  0.95924777  0.77525414     0.18000
H2287       H  0.90278999  0.53860711  0.73125324     0.18000
N2288       N  0.85157880  0.54816474  0.72491009    -0.88800
H2289       H  0.86765787  0.95028911  0.80617087     0.35300
H2290       H  0.89643779  0.95268727  0.78675768     0.40400
H2291       H  0.85760087  0.54902158  0.70232778     0.40000
H2292       H  0.86516830  0.56717574  0.73603276     0.34900
C2293       C  0.61446136  0.97729613  0.00097092    -0.26800
C2294       C  0.60827618  0.00390815  0.49746495    -0.14900
C2295       C  0.63335632  0.52899974  0.49310483     0.35800
C2296       C  0.66087480  0.52588582  0.49058796    -0.26200
C2297       C  0.66455660  0.99899161  0.49285565    -0.15500
C2298       C  0.64236720  0.97455000  0.99902751     0.36800
N2299       N  0.64615202  0.94639184  0.00416659    -0.89700
H2300       H  0.59612200  0.95815736  0.00645069     0.18000
H2301       H  0.67929827  0.54530031  0.48616802     0.19600
N2302       N  0.62994653  0.55744923  0.48927840    -0.88800
H2303       H  0.62595185  0.93009156  0.00700255     0.35300
H2304       H  0.65872807  0.94737289  0.02500930     0.40400
H2305       H  0.61599299  0.55682900  0.46951385     0.40000
H2306       H  0.64999978  0.57353736  0.48532911     0.34900
C2307       C  0.88389400  0.51986767  0.99334177    -0.26800
C2308       C  0.88862443  0.49340495  0.00186958    -0.14900
C2309       C  0.86445177  0.96906685  0.50736180     0.35800
C2310       C  0.83661376  0.97180244  0.50710409    -0.26200
C2311       C  0.83378636  0.99870887  0.00048473    -0.15500
C2312       C  0.85562605  0.52248569  0.99255907     0.36800
N2313       N  0.85142477  0.54964515  0.98267438    -0.89700
H2314       H  0.90218211  0.53831693  0.98636936     0.18000
H2315       H  0.81827531  0.95232305  0.51163511     0.18000
N2316       N  0.86697364  0.94070977  0.51431285    -0.88800
H2317       H  0.87095053  0.56453440  0.97537137     0.35300
H2318       H  0.84661651  0.55901668  0.00190862     0.40400
H2319       H  0.88300586  0.94267548  0.53245107     0.40000
H2320       H  0.87308461  0.93271464  0.49495187     0.34900
C2321       C  0.97248585  0.99151620  0.88716343    -0.26800
C2322       C  0.49611761  0.99116396  0.90800576    -0.14900
C2323       C  0.52257449  0.49939001  0.89900104     0.35800
C2324       C  0.52719156  0.50982820  0.86890478    -0.26200
C2325       C  0.50371352  0.51025224  0.84786141    -0.15500
C2326       C  0.97476328  0.50009980  0.85763913     0.36800
N2327       N  0.94994325  0.49980354  0.83691200    -0.89700
H2328       H  0.95028160  0.98342883  0.89439499     0.18000
H2329       H  0.54954599  0.51760615  0.86206079     0.18000
N2330       N  0.54992254  0.00316708  0.91889220    -0.88800
H2331       H  0.93256417  0.99429116  0.84756050     0.35300
H2332       H  0.94731769  0.48374761  0.82049479     0.40400
H2333       H  0.56178959  0.52108940  0.92116456     0.40000
H2334       H  0.55826274  0.48690539  0.90966202     0.34900
C2335       C  0.98246214  0.01402237  0.60998646    -0.26800
C2336       C  0.50642890  0.51037985  0.59761205    -0.14900
C2337       C  0.52707638  0.50220972  0.61773460     0.35800
C2338       C  0.51998845  0.49238347  0.64744912    -0.26200
C2339       C  0.49310028  0.99005149  0.65738022    -0.15500
C2340       C  0.97579373  0.00454141  0.63995936     0.36800
N2341       N  0.95181384  0.01072635  0.65211563    -0.89700
H2342       H  0.96904240  0.02520405  0.59715698     0.18000
H2343       H  0.53614737  0.48607647  0.66214393     0.18000
N2344       N  0.55533979  0.50325297  0.60895031    -0.88800
H2345       H  0.95943632  0.02261261  0.67239501     0.35300
H2346       H  0.93546152  0.99096417  0.65678973     0.40400
H2347       H  0.56747394  0.52492577  0.60364781     0.40000
H2348       H  0.55254247  0.48993241  0.58982497     0.34900
C2349       C  0.97353832  0.83855185  0.73620535    -0.26800
C2350       C  0.49970968  0.83405788  0.74774737    -0.14900
C2351       C  0.52388060  0.85852959  0.75800447     0.35800
C2352       C  0.52129380  0.88676976  0.75605421    -0.26200
C2353       C  0.49502115  0.89117627  0.74448113    -0.15500
C2354       C  0.97089081  0.86656522  0.73461722     0.36800
N2355       N  0.94332301  0.86963490  0.72344261    -0.89700
H2356       H  0.95475273  0.82013084  0.72826075     0.18000
H2357       H  0.53990115  0.90541088  0.76385410     0.18000
N2358       N  0.55077731  0.85472563  0.77081293    -0.88800
H2359       H  0.92713705  0.85678008  0.73732662     0.35300
H2360       H  0.93820707  0.86137507  0.70112412     0.40400
H2361       H  0.54624625  0.84285853  0.79138349     0.40000
H2362       H  0.56648316  0.87497020  0.77661039     0.34900
C2363       C  0.52885443  0.66337764  0.76671215    -0.26800
C2364       C  0.50289154  0.66779215  0.75436235    -0.14900
C2365       C  0.97884493  0.64314714  0.74416894     0.35800
C2366       C  0.98154569  0.61495867  0.74657853    -0.26200
C2367       C  0.00751013  0.61054513  0.75923785    -0.15500
C2368       C  0.53150119  0.63545329  0.76931219     0.36800
N2369       N  0.55921481  0.63355213  0.78168904    -0.89700
H2370       H  0.54752612  0.68190525  0.77467255     0.18000
H2371       H  0.96304563  0.59626562  0.73866997     0.18000
N2372       N  0.95202375  0.64667024  0.73072482    -0.88800
H2373       H  0.56760010  0.62342768  0.76568684     0.35300
H2374       H  0.55623454  0.62137416  0.80216604     0.40400
H2375       H  0.94147633  0.65210429  0.74842190     0.40000
H2376       H  0.93770609  0.62677262  0.72197161     0.34900
C2377       C  0.97870484  0.73248520  0.89106621    -0.26800
C2378       C  0.50361124  0.75077021  0.90799863    -0.14900
C2379       C  0.52736609  0.76911398  0.89207759     0.35800
C2380       C  0.52592295  0.76821912  0.85984566    -0.26200
C2381       C  0.50113725  0.74983041  0.84290138    -0.15500
C2382       C  0.97724306  0.73163938  0.85877121     0.36800
N2383       N  0.95183232  0.71197462  0.84222954    -0.89700
H2384       H  0.96045306  0.71830997  0.90311549     0.18000
H2385       H  0.54416653  0.78246635  0.84783738     0.18000
N2386       N  0.55266522  0.78903800  0.90853147    -0.88800
H2387       H  0.93611123  0.70054702  0.85731506     0.35300
H2388       H  0.95852060  0.69627420  0.83188761     0.40400
H2389       H  0.54577684  0.80463389  0.91880729     0.40000
H2390       H  0.56831504  0.80056410  0.89341949     0.34900
C2391       C  0.52737343  0.75014550  0.64515121    -0.26800
C2392       C  0.50251358  0.75251559  0.65797813    -0.14900
C2393       C  0.97907912  0.75558642  0.63791976     0.35800
C2394       C  0.98078039  0.75548477  0.60607996    -0.26200
C2395       C  0.50542322  0.75265474  0.59324526    -0.15500
C2396       C  0.52914529  0.75020558  0.61330000     0.36800
N2397       N  0.55500538  0.74692465  0.60226700    -0.89700
H2398       H  0.54558643  0.74781699  0.66001306     0.18000
H2399       H  0.96260162  0.75788139  0.59121306     0.18000
N2400       N  0.95358509  0.75966620  0.64895537    -0.88800
H2401       H  0.56592188  0.76581622  0.58996498     0.35300
H2402       H  0.54879089  0.72875023  0.58783568     0.40400
H2403       H  0.96031317  0.77770036  0.66360820     0.40000
H2404       H  0.94207014  0.74085291  0.66100952     0.34900
C2405       C  0.97849404  0.83823944  0.98068387    -0.26800
C2406       C  0.50296899  0.83350828  0.99651552    -0.14900
C2407       C  0.52512103  0.85744947  0.01071149     0.35800
C2408       C  0.52216667  0.88554994  0.00871456    -0.26200
C2409       C  0.49748497  0.89033152  0.99297122    -0.15500
C2410       C  0.97550927  0.86617750  0.97845900     0.36800
N2411       N  0.94995218  0.86973718  0.96176645    -0.89700
H2412       H  0.96158545  0.81995501  0.96955162     0.18000
H2413       H  0.53656142  0.90334326  0.52163022     0.18000
N2414       N  0.54813789  0.85298418  0.52916636    -0.88800
H2415       H  0.93501412  0.84945697  0.95476568     0.35300
H2416       H  0.95686561  0.88144457  0.94158898     0.40400
H2417       H  0.53989518  0.83911139  0.54763607     0.40000
H2418       H  0.56198501  0.87275249  0.53865527     0.34900
C2419       C  0.97971463  0.64417764  0.50064042    -0.26800
C2420       C  0.00616855  0.66761373  0.50599898    -0.14900
C2421       C  0.53238928  0.66113799  0.51328817     0.35800
C2422       C  0.53174155  0.63192008  0.51473825    -0.26200
C2423       C  0.00542340  0.60852355  0.50918997    -0.15500
C2424       C  0.97902209  0.61475937  0.50231136     0.36800
N2425       N  0.95157844  0.59133156  0.49757968    -0.89700
H2426       H  0.95936500  0.64874236  0.49520579     0.18000
H2427       H  0.55225481  0.62760473  0.52003040     0.18000
N2428       N  0.55984326  0.68403648  0.51952000    -0.88800
H2429       H  0.93430097  0.59965222  0.49241658     0.35300
H2430       H  0.94743035  0.57984518  0.51841187     0.40400
H2431       H  0.57447463  0.68231179  0.50389619     0.40000
H2432       H  0.56826248  0.68063643  0.54164753     0.34900
loop_ 
_geom_bond_atom_site_label_1 
_geom_bond_atom_site_label_2 
_geom_bond_distance 
_geom_bond_site_symmetry_2 
_ccdc_geom_bond_type 
O1           Ni9   1.920       .  S
O1         C1227   1.282       .  A
O2         Ni313   1.916       .  S
O2         C1228   1.280       .  A
O3         Ni313   1.918       .  S
O3           C13   1.282       .  A
O4           Ni9   1.921       .  S
O4           C14   1.281       .  A
O5         Ni314   1.912       .  S
O5         C1230   1.281       .  A
O6          Ni10   1.915       .  S
O6         C1229   1.281   1_556  A
O7          Ni10   1.918   1_554  S
O7           C12   1.282       .  A
O8         Ni314   1.916       .  S
O8           C11   1.282       .  A
Ni9         O306   1.918       .  S
Ni9         O307   1.920       .  S
Ni9       Ni1530   2.384   1_455  S
Ni10        O309   1.913       .  S
Ni10        O312   1.915       .  S
Ni10      Ni1529   2.384   1_556  S
C11        O1217   1.282       .  A
C11        C1466   1.486       .  S
C12        O1218   1.280       .  A
C12        C1483   1.487       .  S
C13        O1222   1.281   1_454  A
C13        C1508   1.490       .  S
C14        O1221   1.281   1_455  A
C14         C278   1.479       .  S
O15         Ni23   1.913       .  S
O15        C1241   1.279       .  A
O16         Ni23   1.913       .  S
O16        C1242   1.282       .  A
O17         Ni23   1.917       .  S
O17        C1243   1.281       .  A
O18         Ni23   1.918       .  S
O18        C1244   1.282       .  A
O19         Ni24   1.917       .  S
O19          C28   1.282       .  A
O20         Ni24   1.918       .  S
O20          C27   1.282       .  A
O21         Ni24   1.921       .  S
O21          C26   1.281       .  A
O22         Ni24   1.918       .  S
O22          C25   1.283       .  A
Ni23      Ni1240   2.382       .  S
Ni24      Ni1239   2.382   1_455  S
C25        O1231   1.279   1_455  A
C25         C236   1.489       .  S
C26        O1232   1.282   1_455  A
C26         C222   1.490       .  S
C27        O1233   1.281   1_455  A
C27         C264   1.488       .  S
C28        O1234   1.282   1_455  A
C28         C253   1.486       .  S
O29         Ni35   1.915       .  S
O29         C658   1.269       .  A
O30         Ni53   1.898       .  S
O30         C343   1.266       .  A
O31          H54   0.966       .  S
O31        Ni339   1.914   1_554  S
O31       Ni1573   1.904       .  S
O31        Ni655   1.924       .  S
C32          O49   1.269   1_554  A
C32        O1257   1.271       .  A
C32         C295   1.485       .  S
O33         Ni52   1.922       .  S
O33         C647   1.271       .  A
O34         Ni52   1.900       .  S
O34          C36   1.271       .  A
Ni35         O38   1.935       .  S
Ni35         O40   1.900       .  S
Ni35        O335   1.914       .  S
C36        O1262   1.279   1_455  A
C36         C208   1.474       .  S
O37         Ni53   1.906       .  S
O37          C43   1.267   1_455  A
O38        C1259   1.271       .  A
C39         O334   1.266   1_554  A
C39         O641   1.271       .  A
C39         C166   1.477   1_554  S
O40        C1258   1.270       .  A
O41         Ni52   1.930       .  S
O41        C1248   1.271       .  A
C42          O48   1.274   1_655  A
C42        O1256   1.270       .  A
C42         C194   1.482       .  S
C43        O1254   1.271       .  A
C43         C281   1.493       .  S
H44          O45   0.966       .  S
O45        Ni661   1.924   1_545  S
O45       Ni1567   1.908   1_455  S
O45        Ni356   1.914       .  S
O46         Ni47   1.946       .  S
O46        C1252   1.279       .  A
Ni47         O51   1.915       .  S
Ni47         O49   1.911   1_554  S
Ni47        O639   1.923   1_545  S
Ni47       O1565   1.907   1_554  S
O48         Ni53   1.935       .  S
C50         O637   1.269       .  A
C50         O355   1.272   1_565  A
C50         C180   1.482       .  S
O51         C354   1.272   1_544  A
Ni52        O349   1.913   1_554  S
Ni53       O1551   1.904   1_455  S
Ni53        O653   1.923       .  S
O55         Ni61   1.919       .  S
O55         C684   1.270       .  A
O56         Ni79   1.909       .  S
O56          C65   1.270       .  A
O57          H80   0.965       .  S
O57         Ni61   1.915       .  S
O57       Ni1295   1.909       .  S
O57        Ni681   1.931       .  S
C58          O75   1.270       .  A
C58        O1283   1.270       .  A
C58         C239   1.488       .  S
O59         Ni78   1.922       .  S
O59         C673   1.272       .  A
O60         Ni78   1.901       .  S
O60          C62   1.271       .  A
Ni61         O64   1.931       .  S
Ni61         O66   1.897       .  S
C62        O1288   1.275   1_455  A
C62         C197   1.486       .  S
O63         Ni79   1.909       .  S
O63          C69   1.267   1_455  A
O64        C1285   1.270       .  A
C65         O667   1.272       .  A
C65         C138   1.488       .  S
O66        C1284   1.270       .  A
O67         Ni78   1.932       .  S
O67        C1274   1.270       .  A
C68          O74   1.280   1_655  A
C68        O1282   1.270       .  A
C68         C211   1.486       .  S
C69        O1280   1.270       .  A
C69         C225   1.487       .  S
H70          O71   0.966       .  S
O71         Ni78   1.911       .  S
O71        Ni687   1.912   1_545  S
O71       Ni1289   1.903   1_455  S
O72         Ni73   1.940       .  S
O72        C1278   1.275       .  A
Ni73         O77   1.906       .  S
Ni73         O75   1.910       .  S
Ni73        O665   1.928   1_545  S
Ni73       O1287   1.903       .  S
O74         Ni79   1.940       .  S
C76          O77   1.268   1_565  A
C76         O663   1.271       .  A
C76         C155   1.476       .  S
Ni79       O1273   1.909   1_455  S
Ni79        O679   1.910       .  S
O81         Ni89   1.916       .  S
O81         C699   1.280   1_545  A
O82         Ni89   1.913       .  S
O82        C1004   1.282   1_545  A
O83        Ni393   1.925   1_554  S
O83         C701   1.283   1_545  A
O84         Ni89   1.920       .  S
O84         C702   1.282   1_545  A
O85        Ni394   1.920       .  S
O85          C94   1.281       .  A
O86         Ni90   1.922   1_554  S
O86          C93   1.281       .  A
O87         Ni90   1.918       .  S
O87          C92   1.281       .  A
O88         Ni90   1.918       .  S
O88         C395   1.283       .  A
Ni89        O387   1.919       .  S
Ni89      Ni1002   2.383   1_545  S
Ni90        O389   1.923       .  S
Ni90      Ni1001   2.383       .  S
C91         O689   1.279       .  A
C91         O392   1.284       .  A
C91         C183   1.491       .  S
C92         O994   1.282       .  A
C92         C169   1.488       .  S
C93         O691   1.283       .  A
C93         C124   1.493       .  S
C94         O692   1.282       .  A
C94         C110   1.480       .  S
O95        Ni103   1.916       .  S
O95         C713   1.283       .  A
O96        Ni103   1.917       .  S
O96         C714   1.281       .  A
O97        Ni103   1.920       .  S
O97         C715   1.281       .  A
O98        Ni103   1.919       .  S
O98         C716   1.281       .  A
O99        Ni104   1.916       .  S
O99         C108   1.281       .  A
O100       Ni104   1.919       .  S
O100        C107   1.282       .  A
O101       Ni104   1.920       .  S
O101        C106   1.283       .  A
O102       Ni104   1.922       .  S
O102        C105   1.281       .  A
Ni103      Ni712   2.383   1_545  S
Ni104      Ni711   2.384       .  S
C105        O703   1.282       .  A
C105        C141   1.492       .  S
C106        O704   1.280       .  A
C106        C760   1.483       .  S
C107        O705   1.281       .  A
C107        C127   1.493       .  S
C108        O706   1.282       .  A
C108        C113   1.479       .  S
C109        C110   1.404       .  A
C109        C114   1.403       .  A
C109        H116   1.084       .  S
C110        C719   1.418       .  A
C111        C112   1.403       .  A
C111        C718   1.418   1_545  A
C111        N118   1.440       .  S
C112        C721   1.404       .  A
C112        H117   1.084       .  S
C113        C114   1.419       .  A
C113        C720   1.403       .  A
C114        N115   1.440       .  S
N115        H119   1.046       .  S
N115        H120   1.042       .  S
N118        H121   1.042       .  S
N118        H122   1.046       .  S
C123        C128   1.403       .  A
C123        C732   1.406   1_545  A
C123        H130   1.084       .  S
C124        C125   1.419       .  A
C124        C731   1.406       .  A
C125        C126   1.402       .  A
C125        N132   1.433       .  S
C126        C127   1.407       .  A
C126        H131   1.084       .  S
C127        C736   1.419       .  A
C128        C735   1.420       .  A
C128        N129   1.433       .  S
N129        H133   1.046       .  S
N129        H134   1.045       .  S
N132        H135   1.045       .  S
N132        H136   1.045       .  S
C137        C138   1.405       .  A
C137        C142   1.404       .  A
C137        H144   1.084       .  S
C138        C747   1.416       .  A
C139        C140   1.403       .  A
C139        C746   1.416       .  A
C139        N146   1.439       .  S
C140        C749   1.406       .  A
C140        H145   1.083       .  S
C141        C142   1.421       .  A
C141        C748   1.406       .  A
C142        N143   1.432       .  S
N143        H147   1.045       .  S
N143        H148   1.046       .  S
N146        H149   1.046       .  S
N146        H150   1.046       .  S
C151        C156   1.401       .  A
C151        C760   1.403       .  A
C151        H158   1.084       .  S
C152        C714   1.483       .  S
C152        C153   1.412       .  A
C152        C759   1.404   1_545  A
C153        C154   1.403       .  A
C153        N160   1.432       .  S
C154        C155   1.403   1_545  A
C154        H159   1.084       .  S
C155        C764   1.419       .  A
C156        C763   1.418       .  A
C156        N157   1.440       .  S
N157        H161   1.046       .  S
N157        H162   1.043       .  S
N160        H163   1.046       .  S
N160        H164   1.046       .  S
C165        C170   1.408       .  A
C165        C470   1.404       .  A
C165        H172   1.084       .  S
C166        C469   1.403   1_556  A
C166        C775   1.410       .  A
C167        C168   1.402       .  A
C167        C774   1.411       .  A
C167        N174   1.439       .  S
C168        C777   1.406   1_545  A
C168        H173   1.083       .  S
C169        C776   1.405       .  A
C169        C474   1.419   1_556  A
C170        C473   1.418       .  A
C170        N171   1.438       .  S
N171        H175   1.046       .  S
N171        H176   1.046       .  S
N174        H177   1.046       .  S
N174        H178   1.046       .  S
C179        C180   1.403   1_545  A
C179        C184   1.410       .  A
C179        H186   1.083       .  S
C180       C1093   1.416       .  A
C181        C182   1.395       .  A
C181       C1092   1.416       .  A
C181        N188   1.433       .  S
C182        C487   1.404       .  A
C182        H187   1.084       .  S
C183        C486   1.404       .  A
C183        C792   1.420       .  A
C184        C791   1.419   1_545  A
C184        N185   1.438       .  S
N185        H189   1.046       .  S
N185        H190   1.045       .  S
N188        H191   1.046       .  S
N188        H192   1.044       .  S
C193       C1410   1.405       .  A
C193        C806   1.403       .  A
C193        H200   1.083       .  S
C194       C1409   1.405       .  A
C194        C803   1.412   1_655  A
C195        C196   1.398       .  A
C195        C802   1.413   1_445  A
C195        N810   1.433       .  S
C196        C197   1.405       .  A
C196        H201   1.084       .  S
C197       C1414   1.418   1_445  A
C198        C801   1.405       .  A
C198       C1413   1.418   1_565  A
C198        N199   1.439       .  S
N199        H204   1.045       .  S
N199        H811   1.046       .  S
N202        C803   1.434       .  S
N202        H813   1.046       .  S
N202        H814   1.046       .  S
H203        N807   1.046       .  S
H205        N810   1.046       .  S
H206        N810   1.046   1_565  S
C207        C212   1.397       .  A
C207       C2032   1.406       .  A
C207        H214   1.084       .  S
C208        C209   1.415   1_545  A
C208       C2031   1.404   1_455  A
C209        C210   1.396       .  A
C209        N216   1.433       .  S
C210        C819   1.402   1_455  A
C210        H215   1.084       .  S
C211        C818   1.405   1_655  A
C211       C1428   1.419       .  A
C212       C1427   1.419       .  A
C212        N213   1.433       .  S
N213        H217   1.045       .  S
N213        H218   1.045       .  S
N216        H219   1.044       .  S
N216        H220   1.046       .  S
C221        C226   1.399       .  A
C221       C1438   1.405       .  A
C221        H228   1.084       .  S
C222        C223   1.418       .  A
C222       C1437   1.405   1_455  A
C223        C224   1.410       .  A
C223        N230   1.438       .  S
C224        C225   1.406   1_455  A
C224        H229   1.084       .  S
C225       C1442   1.412       .  A
C226       C1441   1.412       .  A
C226        N227   1.433       .  S
N227        H231   1.046       .  S
N227        H232   1.046       .  S
N230        H233   1.046       .  S
N230        H234   1.046       .  S
C235        C236   1.403       .  A
C235        C240   1.395       .  A
C235        H242   1.084       .  S
C236       C1453   1.418   1_455  A
C237        C238   1.409       .  A
C237       C1452   1.418       .  A
C237        N244   1.438       .  S
C238        C239   1.405       .  A
C238        H243   1.084       .  S
C239       C1456   1.420       .  A
C240       C1455   1.420       .  A
C240        N241   1.433       .  S
N241        H245   1.045       .  S
N241        H246   1.045       .  S
N244        H247   1.045       .  S
N244        H248   1.046       .  S
C249        C254   1.406       .  A
C249       C1466   1.405       .  A
C249        H256   1.083       .  S
C250       C1227   1.486       .  S
C250        C251   1.414       .  A
C250       C1465   1.405   1_455  A
C251        C252   1.406       .  A
C251        N258   1.438       .  S
C252        C253   1.405       .  A
C252        H257   1.084       .  S
C253       C1470   1.414   1_455  A
C254       C1469   1.414       .  A
C254        N255   1.438       .  S
N255        H259   1.046       .  S
N255        H260   1.046       .  S
N258        H261   1.046       .  S
N258        H262   1.046       .  S
C263        C264   1.406       .  A
C263        C268   1.400       .  A
C263        H270   1.084       .  S
C264       C1481   1.418   1_455  A
C265        C266   1.399       .  A
C265       C1480   1.418       .  A
C265        N272   1.432       .  S
C266       C1483   1.405       .  A
C266        H271   1.084       .  S
C267       C1228   1.487       .  S
C267        C268   1.418       .  A
C267       C1482   1.405   1_455  A
C268        N269   1.433       .  S
N269        H273   1.044       .  S
N269        H274   1.046       .  S
N272        H275   1.046       .  S
N272        H276   1.045       .  S
C277        C282   1.403       .  A
C277       C1494   1.400       .  A
C277        H284   1.084       .  S
C278        C279   1.410       .  A
C278       C1493   1.400   1_455  A
C279        C280   1.408       .  A
C279        N590   1.438       .  S
C280        C281   1.409   1_455  A
C280        H589   1.083       .  S
C281       C1498   1.419       .  A
C282       C1497   1.419       .  A
C282        N283   1.439       .  S
N283        H287   1.046       .  S
N283        H288   1.046       .  S
H285        C584   1.083       .  S
N286        C583   1.438       .  S
N286        H289   1.046       .  S
N286        H290   1.046       .  S
C291        C292   1.409   1_556  A
C291        C296   1.408   1_556  A
C291        H298   1.083       .  S
C292       C1229   1.490       .  S
C292       C1509   1.413       .  A
C293        C294   1.400       .  A
C293       C1508   1.413       .  A
C293        N300   1.433       .  S
C294       C1511   1.405       .  A
C294        H299   1.084       .  S
C295        C296   1.412       .  A
C295       C1510   1.405       .  A
C296        N297   1.437   1_554  S
N297        H301   1.046       .  S
N297        H302   1.046   1_556  S
N300        H303   1.046   1_554  S
N300        H304   1.046       .  S
O305       Ni313   1.917   1_556  S
O305       C1531   1.281       .  A
O306       C1532   1.280       .  A
O307        C317   1.282       .  A
O308       Ni313   1.920       .  S
O308        C318   1.281   1_554  A
O309       C1534   1.281       .  A
O310       Ni314   1.914       .  S
O310       C1533   1.281       .  A
O311       Ni314   1.919       .  S
O311        C316   1.282       .  A
O312        C315   1.281       .  A
Ni313     Ni1226   2.384   1_454  S
Ni314     Ni1225   2.384       .  S
C315       O1521   1.281       .  A
C315       C1770   1.486       .  S
C316       O1522   1.280       .  A
C316       C1787   1.488       .  S
C317       O1526   1.281   1_455  A
C317       C1812   1.491       .  S
C318       O1525   1.281   1_455  A
C318        C582   1.479       .  S
O319       Ni327   1.912       .  S
O319       C1545   1.279       .  A
O320       Ni327   1.912       .  S
O320       C1546   1.281       .  A
O321       Ni327   1.918       .  S
O321       C1547   1.281       .  A
O322       Ni327   1.919       .  S
O322       C1548   1.282       .  A
O323       Ni328   1.913       .  S
O323        C332   1.281       .  A
O324       Ni328   1.916       .  S
O324        C331   1.281       .  A
O325       Ni328   1.920       .  S
O325        C330   1.282       .  A
O326       Ni328   1.918       .  S
O326        C329   1.283       .  A
Ni327     Ni1544   2.383       .  S
Ni328     Ni1543   2.383   1_455  S
C329       O1535   1.279   1_455  A
C329        C540   1.489       .  S
C330       O1536   1.281   1_455  A
C330        C526   1.487       .  S
C331       O1537   1.281   1_455  A
C331        C568   1.488       .  S
C332       O1538   1.282   1_455  A
C332        C557   1.486       .  S
O333       Ni339   1.916       .  S
O333        C962   1.270       .  A
O334       Ni357   1.901   1_556  S
O335        H358   0.966       .  S
O335      Ni1269   1.904       .  S
O335       Ni959   1.924       .  S
C336        O353   1.269       .  A
C336       O1561   1.270       .  A
C336        C599   1.485       .  S
O337       Ni356   1.920       .  S
O337        C951   1.271       .  A
O338       Ni356   1.899       .  S
O338        C340   1.271       .  A
Ni339       O342   1.935       .  S
Ni339       O344   1.899       .  S
C340       O1566   1.281   1_455  A
C340        C512   1.482       .  S
O341       Ni357   1.906       .  S
O341        C347   1.267   1_454  A
O342       C1563   1.271       .  A
C343        O945   1.271       .  A
C343        C470   1.479       .  S
O344       C1562   1.270       .  A
O345       Ni356   1.928       .  S
O345       C1552   1.270       .  A
C346       O1560   1.270       .  A
C346        O352   1.276   1_655  A
C346        C498   1.484       .  S
C347       O1558   1.271       .  A
C347        C585   1.493       .  S
H348        O349   0.966       .  S
O349       Ni965   1.923   1_546  S
O349      Ni1263   1.907   1_456  S
O350       Ni351   1.946       .  S
O350       C1556   1.281       .  A
Ni351       O355   1.915       .  S
Ni351       O353   1.914       .  S
Ni351       O943   1.922   1_545  S
Ni351      O1261   1.908       .  S
O352       Ni357   1.939   1_556  S
C354        O941   1.269       .  A
C354        C484   1.482   1_556  S
Ni357      O1247   1.904   1_455  S
Ni357       O957   1.922   1_554  S
O359       Ni365   1.920       .  S
O359        C988   1.271       .  A
O360       Ni383   1.910       .  S
O360        C369   1.270       .  A
O361        H384   0.965       .  S
O361       Ni365   1.917       .  S
O361      Ni1599   1.910       .  S
O361       Ni985   1.931       .  S
C362        O379   1.270       .  A
C362       O1587   1.270       .  A
C362        C543   1.486       .  S
O363       Ni382   1.919       .  S
O363        C977   1.271       .  A
O364       Ni382   1.899       .  S
O364        C366   1.270       .  A
Ni365       O368   1.933       .  S
Ni365       O370   1.899       .  S
C366       O1592   1.275   1_455  A
C366        C501   1.486       .  S
O367       Ni383   1.909       .  S
O367        C373   1.268   1_455  A
O368       C1589   1.270       .  A
C369        O971   1.272       .  A
C369        C442   1.488       .  S
O370       C1588   1.270       .  A
O371       Ni382   1.930       .  S
O371       C1578   1.270       .  A
C372       O1586   1.270       .  A
C372        O378   1.279   1_655  A
C372        C515   1.485       .  S
C373       O1584   1.270       .  A
C373        C529   1.490       .  S
H374        O375   0.966       .  S
O375       Ni991   1.913   1_545  S
O375      Ni1593   1.903   1_455  S
O375       Ni382   1.912       .  S
O376       Ni377   1.942       .  S
O376       C1582   1.275       .  A
Ni377       O381   1.909       .  S
Ni377       O379   1.907       .  S
Ni377       O969   1.928   1_545  S
Ni377      O1591   1.903       .  S
O378       Ni383   1.939       .  S
C380        O967   1.270       .  A
C380        O381   1.268   1_565  A
C380        C459   1.476       .  S
Ni383      O1577   1.910   1_455  S
Ni383       O983   1.912       .  S
O385       Ni393   1.917       .  S
O385       C1003   1.280   1_545  A
O386       Ni393   1.913       .  S
O386        C700   1.282   1_545  A
O387       C1005   1.282   1_545  A
O388       Ni393   1.922       .  S
O388       C1006   1.282   1_545  A
O389        C398   1.282       .  A
O390       Ni394   1.918       .  S
O390        C397   1.281       .  A
O391       Ni394   1.920       .  S
O391        C396   1.281       .  A
O392       Ni394   1.918       .  S
Ni393      Ni698   2.383   1_545  S
Ni394      Ni697   2.383       .  S
C395        O993   1.280       .  A
C395        C487   1.490   1_556  S
C396        O690   1.281       .  A
C396        C473   1.489       .  S
C397        O995   1.283       .  A
C397        C428   1.489       .  S
C398        O996   1.281       .  A
C398        C414   1.483       .  S
O399       Ni407   1.912       .  S
O399       C1017   1.282       .  A
O400       Ni407   1.914       .  S
O400       C1018   1.280       .  A
O401       Ni407   1.921       .  S
O401       C1019   1.281       .  A
O402       Ni407   1.922       .  S
O402       C1020   1.282   1_545  A
O403       Ni408   1.919       .  S
O403        C412   1.282       .  A
O404       Ni408   1.921       .  S
O404        C411   1.283       .  A
O405       Ni408   1.917       .  S
O405        C410   1.282       .  A
O406       Ni408   1.920       .  S
O406        C409   1.280       .  A
Ni407     Ni1016   2.384   1_545  S
Ni408     Ni1015   2.384       .  S
C409       O1007   1.283       .  A
C409        C445   1.493       .  S
C410       O1008   1.281       .  A
C410       C1064   1.482       .  S
C411       O1009   1.281       .  A
C411        C431   1.490       .  S
C412       O1010   1.282       .  A
C412        C417   1.482       .  S
C413        C414   1.404       .  A
C413        C418   1.404       .  A
C413        H420   1.084       .  S
C414       C1023   1.420       .  A
C415       C1022   1.418   1_545  A
C415        C416   1.403       .  A
C415        N422   1.440       .  S
C416       C1025   1.403   1_545  A
C416        H421   1.084       .  S
C417       C1024   1.404       .  A
C417        C418   1.419       .  A
C418        N419   1.440       .  S
N419        H423   1.046       .  S
N419        H424   1.042       .  S
N422        H425   1.042       .  S
N422        H426   1.046       .  S
C427       C1036   1.406   1_545  A
C427        C432   1.401       .  A
C427        H434   1.084       .  S
C428       C1035   1.406       .  A
C428        C429   1.419       .  A
C429        C430   1.400       .  A
C429        N436   1.433       .  S
C430        C431   1.405       .  A
C430        H435   1.084       .  S
C431       C1040   1.419       .  A
C432       C1039   1.418       .  A
C432        N433   1.433       .  S
N433        H437   1.046       .  S
N433        H438   1.045       .  S
N436        H439   1.045       .  S
N436        H440   1.046       .  S
C441        C442   1.405       .  A
C441        C446   1.404       .  A
C441        H448   1.084       .  S
C442       C1051   1.416       .  A
C443       C1050   1.415       .  A
C443        C444   1.401       .  A
C443        N450   1.439       .  S
C444       C1053   1.406       .  A
C444        H449   1.083       .  S
C445       C1052   1.405       .  A
C445        C446   1.422       .  A
C446        N447   1.432       .  S
N447        H451   1.045       .  S
N447        H452   1.045       .  S
N450        H453   1.046       .  S
N450        H454   1.046       .  S
C455       C1064   1.403       .  A
C455        C460   1.401       .  A
C455        H462   1.084       .  S
C456       C1018   1.483       .  S
C456       C1063   1.403   1_545  A
C456        C457   1.413       .  A
C457        C458   1.405       .  A
C457        N464   1.432       .  S
C458        C459   1.403   1_545  A
C458        H463   1.084       .  S
C459       C1068   1.418       .  A
C460       C1067   1.418       .  A
C460        N461   1.440       .  S
N461        H465   1.046       .  S
N461        H466   1.043       .  S
N464        H467   1.046       .  S
N464        H468   1.046       .  S
C469        C474   1.409       .  A
C469        H476   1.084       .  S
C470       C1079   1.411       .  A
C471       C1078   1.411       .  A
C471        C472   1.401       .  A
C471        N478   1.439       .  S
C472       C1081   1.406   1_545  A
C472        H477   1.083       .  S
C473       C1080   1.406       .  A
C474        N475   1.438       .  S
N475        H479   1.046       .  S
N475        H480   1.046       .  S
N478        H481   1.046       .  S
N478        H482   1.046       .  S
C483        C484   1.402   1_546  A
C483        C488   1.410       .  A
C483        H490   1.082       .  S
C484        C789   1.416       .  A
C485        C788   1.418       .  A
C485        C486   1.394       .  A
C485        N492   1.434       .  S
C486        H491   1.084       .  S
C487       C1096   1.419   1_554  A
C488       C1095   1.419   1_546  A
C488        N489   1.438       .  S
N489        H493   1.046       .  S
N489        H494   1.045   1_556  S
N492        H495   1.046       .  S
N492        H496   1.044       .  S
C497       C1714   1.406       .  A
C497       C1110   1.404       .  A
C497        H504   1.083       .  S
C498       C1713   1.406       .  A
C498       C1107   1.412   1_655  A
C499       C1106   1.412   1_445  A
C499        C500   1.399       .  A
C499       N1114   1.433       .  S
C500        C501   1.406       .  A
C500        H505   1.084       .  S
C501       C1718   1.418   1_455  A
C502       C1105   1.404   1_545  A
C502       C1717   1.418       .  A
C502        N503   1.439       .  S
N503       H1115   1.046   1_545  S
N503        H508   1.045   1_545  S
N506       C1107   1.433       .  S
N506       H1117   1.046       .  S
N506       H1118   1.046       .  S
H507       N1111   1.046       .  S
H509       N1114   1.046       .  S
H510       N1114   1.046   1_565  S
C511       C2336   1.406       .  A
C511        C516   1.396       .  A
C511        H518   1.084       .  S
C512       C2335   1.405   1_455  A
C512        C513   1.418   1_545  A
C513        C514   1.396       .  A
C513        N520   1.433       .  S
C514       C1123   1.405   1_455  A
C514        H519   1.084       .  S
C515       C1122   1.406   1_655  A
C515       C1732   1.419       .  A
C516       C1731   1.419       .  A
C516        N517   1.433       .  S
N517        H521   1.046       .  S
N517        H522   1.045       .  S
N520        H523   1.045   1_565  S
N520        H524   1.046       .  S
C525       C1742   1.404       .  A
C525        C530   1.400       .  A
C525        H532   1.084       .  S
C526       C1741   1.404   1_455  A
C526        C527   1.415       .  A
C527        C528   1.409       .  A
C527        N534   1.438       .  S
C528        C529   1.407   1_455  A
C528        H533   1.083       .  S
C529       C1746   1.414       .  A
C530       C1745   1.414       .  A
C530        N531   1.433       .  S
N531        H535   1.046       .  S
N531        H536   1.046       .  S
N534        H537   1.046       .  S
N534        H538   1.046       .  S
C539        C540   1.404       .  A
C539        C544   1.395       .  A
C539        H546   1.084       .  S
C540       C1757   1.418   1_455  A
C541       C1756   1.418       .  A
C541        C542   1.407       .  A
C541        N548   1.438       .  S
C542        C543   1.404       .  A
C542        H547   1.084       .  S
C543       C1760   1.419       .  A
C544       C1759   1.419       .  A
C544        N545   1.433       .  S
N545        H549   1.045       .  S
N545        H550   1.045       .  S
N548        H551   1.045       .  S
N548        H552   1.046       .  S
C553       C1770   1.406       .  A
C553        C558   1.406       .  A
C553        H560   1.083       .  S
C554       C1531   1.486       .  S
C554       C1769   1.406   1_455  A
C554        C555   1.414       .  A
C555        C556   1.404       .  A
C555        N562   1.438       .  S
C556        C557   1.405       .  A
C556        H561   1.083       .  S
C557       C1774   1.414   1_455  A
C558       C1773   1.414       .  A
C558        N559   1.438       .  S
N559        H563   1.046       .  S
N559        H564   1.046       .  S
N562        H565   1.046       .  S
N562        H566   1.046       .  S
C567        C568   1.406       .  A
C567        C572   1.400       .  A
C567        H574   1.084       .  S
C568       C1785   1.417   1_455  A
C569       C1784   1.417       .  A
C569        C570   1.399       .  A
C569        N576   1.433       .  S
C570       C1787   1.405       .  A
C570        H575   1.084       .  S
C571       C1532   1.488       .  S
C571       C1786   1.405   1_455  A
C571        C572   1.418       .  A
C572        N573   1.433       .  S
N573        H577   1.045       .  S
N573        H578   1.046       .  S
N576        H579   1.046       .  S
N576        H580   1.045       .  S
C581       C1798   1.400       .  A
C581        C586   1.403       .  A
C581        H588   1.084       .  S
C582       C1797   1.400   1_455  A
C582        C583   1.411   1_556  A
C583        C584   1.408       .  A
C584        C585   1.409   1_454  A
C585       C1802   1.419       .  A
C586       C1801   1.419       .  A
C586        N587   1.438       .  S
N587        H591   1.046       .  S
N587        H592   1.046       .  S
N590        H593   1.046       .  S
N590        H594   1.046       .  S
C595        C596   1.410       .  A
C595        C600   1.409       .  A
C595        H602   1.083       .  S
C596       C1533   1.491       .  S
C596       C1813   1.413       .  A
C597       C1812   1.413       .  A
C597        C598   1.400       .  A
C597        N604   1.433       .  S
C598       C1815   1.405       .  A
C598        H603   1.084       .  S
C599       C1814   1.405       .  A
C599        C600   1.411       .  A
C600        N601   1.437       .  S
N601        H605   1.046       .  S
N601        H606   1.046       .  S
N604        H607   1.046       .  S
N604        H608   1.046       .  S
O609       Ni617   1.914       .  S
O609       C1835   1.281       .  A
O610       Ni921   1.915       .  S
O610       C1836   1.280       .  A
O611       Ni921   1.920       .  S
O611        C621   1.282       .  A
O612       Ni617   1.922       .  S
O612        C622   1.282       .  A
O613       Ni922   1.913       .  S
O613       C1838   1.281       .  A
O614       Ni618   1.914   1_554  S
O614       C1837   1.281       .  A
O615       Ni618   1.916   1_554  S
O615        C620   1.282       .  A
O616       Ni922   1.922       .  S
O616        C619   1.283       .  A
Ni617       O914   1.912       .  S
Ni617       O915   1.919       .  S
Ni617     Ni2138   2.383   1_455  S
Ni618       O917   1.912       .  S
Ni618       O920   1.916       .  S
Ni618     Ni2137   2.385   1_556  S
C619       O1825   1.281       .  A
C619       C2074   1.490       .  S
C620       O1826   1.280       .  A
C620       C2091   1.486       .  S
C621       O1830   1.281   1_455  A
C621       C2116   1.485       .  S
C622       O1829   1.281   1_455  A
C622        C886   1.483       .  S
O623       Ni631   1.916       .  S
O623       C1849   1.280       .  A
O624       Ni631   1.916       .  S
O624       C1850   1.283       .  A
O625       Ni631   1.916       .  S
O625       C1851   1.280       .  A
O626       Ni631   1.918       .  S
O626       C1852   1.281       .  A
O627       Ni632   1.918       .  S
O627        C636   1.282       .  A
O628       Ni632   1.918       .  S
O628        C635   1.282       .  A
O629       Ni632   1.917       .  S
O629        C634   1.281       .  A
O630       Ni632   1.914       .  S
O630        C633   1.282       .  A
Ni631     Ni1848   2.382       .  S
Ni632     Ni1847   2.382   1_455  S
C633       O1839   1.280   1_455  A
C633        C844   1.489       .  S
C634       O1840   1.283   1_455  A
C634        C830   1.489       .  S
C635       O1841   1.280   1_455  A
C635        C872   1.488       .  S
C636       O1842   1.281   1_455  A
C636        C861   1.488       .  S
O637       Ni643   1.915       .  S
O638       Ni661   1.902       .  S
O638        C951   1.267   1_565  A
O639        H662   0.966       .  S
O639       Ni947   1.914   1_554  S
O639      Ni2181   1.906       .  S
C640        O657   1.269   1_554  A
C640       O1865   1.271       .  A
C640        C903   1.491       .  S
O641       Ni660   1.921       .  S
O642       Ni660   1.893       .  S
O642        C644   1.269       .  A
Ni643       O646   1.933       .  S
Ni643       O648   1.900       .  S
Ni643       O943   1.913       .  S
C644       O1870   1.281   1_455  A
C644        C816   1.486       .  S
O645       Ni661   1.910       .  S
O645        C651   1.268   1_455  A
O646       C1867   1.271       .  A
C647        O942   1.267   1_544  A
C647        C774   1.479   1_554  S
O648       C1866   1.270       .  A
O649       Ni660   1.929       .  S
O649       C1856   1.271       .  A
C650       O1864   1.270       .  A
C650        O656   1.275   1_655  A
C650        C802   1.484       .  S
C651       O1862   1.271       .  A
C651        C889   1.495       .  S
H652        O653   0.966       .  S
O653      Ni2175   1.907   1_455  S
O653       Ni964   1.913       .  S
O654       Ni655   1.947       .  S
O654       C1860   1.281       .  A
Ni655       O659   1.917       .  S
Ni655       O657   1.913   1_554  S
Ni655      O2173   1.906   1_554  S
O656       Ni661   1.937       .  S
C658        O963   1.272       .  A
C658        C788   1.484       .  S
O659        C962   1.272   1_554  A
Ni660       O957   1.913   1_554  S
Ni661      O2159   1.905   1_455  S
O663       Ni669   1.920       .  S
O664       Ni687   1.910       .  S
O664        C673   1.271   1_565  A
O665        H688   0.965       .  S
O665       Ni669   1.915       .  S
O665      Ni1903   1.910       .  S
C666        O683   1.270       .  A
C666       O1891   1.271       .  A
C666        C847   1.487       .  S
O667       Ni686   1.922       .  S
O668       Ni686   1.898       .  S
O668        C670   1.270       .  A
Ni669       O672   1.932       .  S
Ni669       O674   1.900       .  S
C670       O1896   1.274   1_455  A
C670        C805   1.484       .  S
O671       Ni687   1.911       .  S
O671        C677   1.268   1_455  A
O672       C1893   1.270       .  A
C673        C746   1.487       .  S
O674       C1892   1.271       .  A
O675       Ni686   1.932       .  S
O675       C1882   1.271       .  A
C676       O1890   1.271       .  A
C676        O682   1.280   1_655  A
C676        C819   1.474       .  S
C677       O1888   1.270       .  A
C677        C833   1.488       .  S
H678        O679   0.966       .  S
O679      Ni1897   1.903   1_455  S
O679       Ni686   1.910       .  S
O680       Ni681   1.939       .  S
O680       C1886   1.274       .  A
Ni681       O685   1.909       .  S
Ni681       O683   1.908       .  S
Ni681      O1895   1.903       .  S
O682       Ni687   1.944       .  S
C684        O685   1.268       .  A
C684        C763   1.477       .  S
Ni687      O1881   1.910   1_455  S
O689       Ni697   1.914       .  S
O690       Ni697   1.909       .  S
O691      Ni1001   1.919   1_554  S
O692       Ni697   1.920       .  S
O693      Ni1002   1.919       .  S
O693        C702   1.281       .  A
O694       Ni698   1.918   1_554  S
O694        C701   1.281       .  A
O695       Ni698   1.917       .  S
O695        C700   1.281       .  A
O696       Ni698   1.916       .  S
O696       C1003   1.283       .  A
Ni697       O995   1.921       .  S
Ni698       O997   1.919       .  S
C699       O1000   1.283       .  A
C699        C791   1.490       .  S
C700        C777   1.489       .  S
C701        C732   1.493       .  S
C702        C718   1.481       .  S
O703       Ni711   1.910       .  S
O704       Ni711   1.915       .  S
O705       Ni711   1.921       .  S
O706       Ni711   1.922       .  S
O707       Ni712   1.920       .  S
O707        C716   1.282   1_565  A
O708       Ni712   1.923       .  S
O708        C715   1.283   1_565  A
O709       Ni712   1.916       .  S
O709        C714   1.282   1_565  A
O710       Ni712   1.917       .  S
O710        C713   1.280   1_565  A
C713        C749   1.494       .  S
C715        C735   1.493       .  S
C716        C721   1.480       .  S
C717        C718   1.404       .  A
C717        C722   1.403       .  A
C717        H724   1.084       .  S
C719        C720   1.403       .  A
C719        N726   1.440       .  S
C720        H725   1.084       .  S
C721        C722   1.418   1_545  A
C722        N723   1.440       .  S
N723        H727   1.046       .  S
N723        H728   1.042       .  S
N726        H729   1.042       .  S
N726        H730   1.046       .  S
C731        C736   1.400       .  A
C731        H738   1.084       .  S
C732        C733   1.420       .  A
C733        C734   1.400       .  A
C733        N740   1.433       .  S
C734        C735   1.405   1_565  A
C734        H739   1.084       .  S
C736        N737   1.432       .  S
N737        H741   1.046       .  S
N737        H742   1.045       .  S
N740        H743   1.045       .  S
N740        H744   1.046       .  S
C745        C746   1.403   1_565  A
C745        C750   1.402       .  A
C745        H752   1.084       .  S
C747        C748   1.400       .  A
C747        N754   1.439       .  S
C748        H753   1.083       .  S
C749        C750   1.422   1_545  A
C750        N751   1.432       .  S
N751        H755   1.045       .  S
N751        H756   1.045       .  S
N754        H757   1.046       .  S
N754        H758   1.046       .  S
C759        C764   1.401       .  A
C759        H766   1.084       .  S
C760        C761   1.412       .  A
C761        C762   1.405       .  A
C761        N768   1.432       .  S
C762        C763   1.403       .  A
C762        H767   1.084       .  S
C764        N765   1.440       .  S
N765        H769   1.046       .  S
N765        H770   1.042       .  S
N768        H771   1.046       .  S
N768        H772   1.046       .  S
C773       C1078   1.403   1_565  A
C773        C778   1.408       .  A
C773        H780   1.084       .  S
C774       C1077   1.402   1_546  A
C775        C776   1.400       .  A
C775        N782   1.439       .  S
C776        H781   1.083       .  S
C777       C1082   1.419       .  A
C778       C1081   1.419       .  A
C778        N779   1.438       .  S
N779        H783   1.046       .  S
N779        H784   1.046       .  S
N782        H785   1.046       .  S
N782        H786   1.046       .  S
C787        C788   1.403       .  A
C787        C792   1.410       .  A
C787        H794   1.082       .  S
C789        C790   1.395       .  A
C789        N796   1.434       .  S
C790       C1095   1.405       .  A
C790        H795   1.084       .  S
C791       C1094   1.404       .  A
C792        N793   1.438       .  S
N793        H797   1.046       .  S
N793        H798   1.045       .  S
N796        H799   1.046       .  S
N796        H800   1.044   1_554  S
C801       C2018   1.406       .  A
C801        H808   1.083       .  S
C802       C2017   1.406       .  A
C803        C804   1.397       .  A
C804        C805   1.405       .  A
C804        H809   1.084       .  S
C805       C2022   1.418   1_455  A
C806       C2021   1.418       .  A
C806        N807   1.439       .  S
N807        H812   1.044       .  S
C815       C1424   1.404       .  A
C815        C820   1.398       .  A
C815        H822   1.084       .  S
C816       C1423   1.406   1_455  A
C816        C817   1.420       .  A
C817        C818   1.393       .  A
C817        N824   1.433       .  S
C818        H823   1.084       .  S
C819       C2036   1.415   1_565  A
C820       C2035   1.415   1_545  A
C820        N821   1.433       .  S
N821        H825   1.046       .  S
N821        H826   1.044       .  S
N824        H827   1.045       .  S
N824        H828   1.045       .  S
C829       C2046   1.404       .  A
C829        C834   1.399       .  A
C829        H836   1.084       .  S
C830       C2045   1.404   1_455  A
C830        C831   1.418       .  A
C831        C832   1.410       .  A
C831        N838   1.438       .  S
C832        C833   1.405   1_455  A
C832        H837   1.084       .  S
C833       C2050   1.413       .  A
C834       C2049   1.413       .  A
C834        N835   1.433       .  S
N835        H839   1.046       .  S
N835        H840   1.046       .  S
N838        H841   1.046       .  S
N838        H842   1.046       .  S
C843        C844   1.404       .  A
C843        C848   1.394       .  A
C843        H850   1.084       .  S
C844       C2061   1.418   1_455  A
C845       C2060   1.418       .  A
C845        C846   1.408       .  A
C845        N852   1.438       .  S
C846        C847   1.406       .  A
C846        H851   1.084       .  S
C847       C2064   1.419       .  A
C848       C2063   1.419       .  A
C848        N849   1.433       .  S
N849        H853   1.046       .  S
N849        H854   1.045       .  S
N852        H855   1.045       .  S
N852        H856   1.046       .  S
C857       C2074   1.406       .  A
C857        C862   1.407       .  A
C857        H864   1.083       .  S
C858       C1835   1.490       .  S
C858       C2073   1.406   1_455  A
C858        C859   1.416       .  A
C859        C860   1.405       .  A
C859        N866   1.438       .  S
C860        C861   1.404       .  A
C860        H865   1.083       .  S
C861       C2078   1.415   1_455  A
C862       C2077   1.415       .  A
C862        N863   1.438       .  S
N863        H867   1.046       .  S
N863        H868   1.046       .  S
N866        H869   1.046       .  S
N866        H870   1.046       .  S
C871        C872   1.406       .  A
C871        C876   1.400       .  A
C871        H878   1.084       .  S
C872       C2089   1.418   1_455  A
C873       C2088   1.418       .  A
C873        C874   1.398       .  A
C873        N880   1.433       .  S
C874       C2091   1.405       .  A
C874        H879   1.084       .  S
C875       C1836   1.486       .  S
C875       C2090   1.405   1_455  A
C875        C876   1.418       .  A
C876        N877   1.433       .  S
N877        H881   1.045       .  S
N877        H882   1.046       .  S
N880        H883   1.046       .  S
N880        H884   1.045       .  S
C885       C2102   1.401       .  A
C885        C890   1.403       .  A
C885        H892   1.084       .  S
C886       C2101   1.401   1_455  A
C886        C887   1.412       .  A
C887        C888   1.409       .  A
C887       N1198   1.438       .  S
C888        C889   1.409   1_455  A
C888       H1197   1.083       .  S
C889       C2106   1.420       .  A
C890       C2105   1.420       .  A
C890        N891   1.439       .  S
N891        H895   1.046       .  S
N891        H896   1.046       .  S
H893       C1192   1.083       .  S
N894       C1191   1.438       .  S
N894        H897   1.046       .  S
N894        H898   1.046       .  S
C899        C900   1.406   1_556  A
C899        C904   1.408       .  A
C899        H906   1.083       .  S
C900       C1837   1.485       .  S
C900       C2117   1.409       .  A
C901       C2116   1.409       .  A
C901        C902   1.401       .  A
C901        N908   1.433       .  S
C902       C2119   1.408       .  A
C902        H907   1.084       .  S
C903       C2118   1.408       .  A
C903        C904   1.415   1_554  A
C904        N905   1.437       .  S
N905        H909   1.046       .  S
N905        H910   1.046   1_556  S
N908        H911   1.046       .  S
N908        H912   1.046       .  S
O913       Ni921   1.917   1_556  S
O913       C2139   1.282       .  A
O914       C2140   1.279       .  A
O915        C925   1.282       .  A
O916       Ni921   1.921       .  S
O916        C926   1.281   1_554  A
O917       C2142   1.281       .  A
O918       Ni922   1.915       .  S
O918       C2141   1.281       .  A
O919       Ni922   1.921       .  S
O919        C924   1.283       .  A
O920        C923   1.281       .  A
Ni921     Ni1834   2.385   1_454  S
Ni922     Ni1833   2.383       .  S
C923       O2129   1.282       .  A
C923       C2378   1.486       .  S
C924       O2130   1.279       .  A
C924       C2395   1.486       .  S
C925       O2134   1.281   1_455  A
C925       C2420   1.490       .  S
C926       O2133   1.281   1_455  A
C926       C1190   1.483       .  S
O927       Ni935   1.916       .  S
O927       C2153   1.280       .  A
O928       Ni935   1.913       .  S
O928       C2154   1.282       .  A
O929       Ni935   1.916       .  S
O929       C2155   1.280       .  A
O930       Ni935   1.919       .  S
O930       C2156   1.281       .  A
O931       Ni936   1.915       .  S
O931        C940   1.282       .  A
O932       Ni936   1.917       .  S
O932        C939   1.282       .  A
O933       Ni936   1.918       .  S
O933        C938   1.281       .  A
O934       Ni936   1.917       .  S
O934        C937   1.283       .  A
Ni935     Ni2152   2.383       .  S
Ni936     Ni2151   2.383   1_455  S
C937       O2143   1.280   1_455  A
C937       C1148   1.489       .  S
C938       O2144   1.282   1_455  A
C938       C1134   1.486   1_455  S
C939       O2145   1.280   1_455  A
C939       C1176   1.487       .  S
C940       O2146   1.281   1_455  A
C940       C1165   1.486       .  S
O941       Ni947   1.914       .  S
O942       Ni965   1.901   1_556  S
O943        H966   0.966       .  S
O943      Ni1877   1.905       .  S
C944        O961   1.270       .  A
C944       O2169   1.270       .  A
C944       C1207   1.486       .  S
O945       Ni964   1.921       .  S
O946       Ni964   1.896       .  S
O946        C948   1.270       .  A
Ni947       O950   1.932       .  S
Ni947       O952   1.900       .  S
C948       O2174   1.280   1_455  A
C948       C1120   1.485       .  S
O949       Ni965   1.912       .  S
O949        C955   1.269   1_454  A
O950       C2171   1.270       .  A
C951       C1078   1.479       .  S
O952       C2170   1.270       .  A
O953       Ni964   1.927       .  S
O953       C2160   1.270       .  A
C954       O2168   1.270       .  A
C954        O960   1.275   1_655  A
C954       C1106   1.484       .  S
C955       O2166   1.270       .  A
C955       C1193   1.494       .  S
H956        O957   0.966       .  S
O957      Ni1871   1.906   1_456  S
O958       Ni959   1.942       .  S
O958       C2164   1.280       .  A
Ni959       O963   1.916       .  S
Ni959       O961   1.915       .  S
Ni959      O1869   1.907       .  S
O960       Ni965   1.939   1_556  S
C962       C1092   1.482   1_556  S
Ni965      O1855   1.906   1_455  S
O967       Ni973   1.919       .  S
O968       Ni991   1.910       .  S
O968        C977   1.270   1_565  A
O969        H992   0.965       .  S
O969       Ni973   1.916       .  S
O969      Ni2207   1.910       .  S
C970        O987   1.271       .  A
C970       O2195   1.271       .  A
C970       C1151   1.493       .  S
O971       Ni990   1.923       .  S
O972       Ni990   1.899       .  S
O972        C974   1.270       .  A
Ni973       O976   1.931       .  S
Ni973       O978   1.899       .  S
C974       O2200   1.275   1_455  A
C974       C1109   1.486       .  S
O975       Ni991   1.908       .  S
O975        C981   1.267   1_455  A
O976       C2197   1.270       .  A
C977       C1050   1.485       .  S
O978       C2196   1.270       .  A
O979       Ni990   1.933       .  S
O979       C2186   1.271       .  A
C980       O2194   1.270       .  A
C980        O986   1.279   1_655  A
C980       C1123   1.482       .  S
C981       O2192   1.270       .  A
C981       C1137   1.488       .  S
H982        O983   0.966       .  S
O983      Ni2201   1.903   1_455  S
O983       Ni990   1.911       .  S
O984       Ni985   1.941       .  S
O984       C2190   1.275       .  A
Ni985       O989   1.908       .  S
Ni985       O987   1.911       .  S
Ni985      O2199   1.903       .  S
O986       Ni991   1.943       .  S
C988        O989   1.268       .  A
C988       C1067   1.476       .  S
Ni991      O2185   1.910   1_455  S
O993      Ni1001   1.917       .  S
O994      Ni1001   1.912       .  S
O996      Ni1001   1.919       .  S
O997       C1006   1.281       .  A
O998      Ni1002   1.918       .  S
O998       C1005   1.281       .  A
O999      Ni1002   1.918       .  S
O999       C1004   1.281       .  A
O1000     Ni1002   1.915       .  S
C1003      C1095   1.491   1_556  S
C1004      C1081   1.489       .  S
C1005      C1036   1.490       .  S
C1006      C1022   1.481       .  S
O1007     Ni1015   1.914       .  S
O1008     Ni1015   1.916       .  S
O1009     Ni1015   1.920       .  S
O1010     Ni1015   1.922       .  S
O1011     Ni1016   1.916       .  S
O1011      C1020   1.281       .  A
O1012     Ni1016   1.917       .  S
O1012      C1019   1.282   1_565  A
O1013     Ni1016   1.918       .  S
O1013      C1018   1.283   1_565  A
O1014     Ni1016   1.921       .  S
O1014      C1017   1.281   1_565  A
C1017      C1053   1.494       .  S
C1019      C1039   1.490       .  S
C1020      C1025   1.480       .  S
C1021      C1022   1.404       .  A
C1021      C1026   1.404       .  A
C1021      H1028   1.084       .  S
C1023      C1024   1.405       .  A
C1023      N1030   1.440       .  S
C1024      H1029   1.084       .  S
C1025      C1026   1.419       .  A
C1026      N1027   1.440       .  S
N1027      H1031   1.046       .  S
N1027      H1032   1.042       .  S
N1030      H1033   1.042       .  S
N1030      H1034   1.046       .  S
C1035      C1040   1.401       .  A
C1035      H1042   1.084       .  S
C1036      C1037   1.419       .  A
C1037      C1038   1.400       .  A
C1037      N1044   1.433       .  S
C1038      C1039   1.406   1_565  A
C1038      H1043   1.084       .  S
C1040      N1041   1.433       .  S
N1041      H1045   1.046       .  S
N1041      H1046   1.045       .  S
N1044      H1047   1.045       .  S
N1044      H1048   1.045       .  S
C1049      C1050   1.403   1_565  A
C1049      C1054   1.403       .  A
C1049      H1056   1.084       .  S
C1051      C1052   1.401       .  A
C1051      N1058   1.439       .  S
C1052      H1057   1.083       .  S
C1053      C1054   1.422   1_545  A
C1054      N1055   1.432       .  S
N1055      H1059   1.045       .  S
N1055      H1060   1.045       .  S
N1058      H1061   1.046       .  S
N1058      H1062   1.046       .  S
C1063      C1068   1.400       .  A
C1063      H1070   1.084       .  S
C1064      C1065   1.412       .  A
C1065      C1066   1.405       .  A
C1065      N1072   1.432       .  S
C1066      C1067   1.403       .  A
C1066      H1071   1.084       .  S
C1068      N1069   1.440       .  S
N1069      H1073   1.046       .  S
N1069      H1074   1.043       .  S
N1072      H1075   1.046       .  S
N1072      H1076   1.046       .  S
C1077      C1082   1.407   1_554  A
C1077      H1084   1.084       .  S
C1079      C1080   1.400       .  A
C1079      N1086   1.439       .  S
C1080      H1085   1.083       .  S
C1082      N1083   1.438   1_556  S
N1083      H1087   1.046       .  S
N1083      H1088   1.046       .  S
N1086      H1089   1.046       .  S
N1086      H1090   1.046       .  S
C1091      C1092   1.403   1_556  A
C1091      C1096   1.410       .  A
C1091      H1098   1.083       .  S
C1093      C1094   1.394       .  A
C1093      N1100   1.434       .  S
C1094      H1099   1.084       .  S
C1096      N1097   1.438       .  S
N1097      H1101   1.046       .  S
N1097      H1102   1.045   1_556  S
N1100      H1103   1.046       .  S
N1100      H1104   1.044       .  S
C1105      C2322   1.405       .  A
C1105      H1112   1.083       .  S
C1106      C2321   1.405       .  A
C1107      C1108   1.398       .  A
C1108      C1109   1.405       .  A
C1108      H1113   1.084       .  S
C1109      C2326   1.418   1_455  A
C1110      C2325   1.418       .  A
C1110      N1111   1.439       .  S
N1111      H1116   1.045       .  S
C1119      C1728   1.405       .  A
C1119      C1124   1.397       .  A
C1119      H1126   1.084       .  S
C1120      C1727   1.406   1_455  A
C1120      C1121   1.419       .  A
C1121      C1122   1.394       .  A
C1121      N1128   1.433       .  S
C1122      H1127   1.084       .  S
C1123      C2340   1.418   1_565  A
C1124      C2339   1.418   1_545  A
C1124      N1125   1.433       .  S
N1125      H1129   1.046       .  S
N1125      H1130   1.045   1_545  S
N1128      H1131   1.045       .  S
N1128      H1132   1.045       .  S
C1133      C2350   1.403       .  A
C1133      C1138   1.399       .  A
C1133      H1140   1.084       .  S
C1134      C2349   1.403       .  A
C1134      C1135   1.416   1_655  A
C1135      C1136   1.409       .  A
C1135      N1142   1.438       .  S
C1136      C1137   1.406   1_455  A
C1136      H1141   1.083       .  S
C1137      C2354   1.414       .  A
C1138      C2353   1.414       .  A
C1138      N1139   1.433       .  S
N1139      H1143   1.046       .  S
N1139      H1144   1.046       .  S
N1142      H1145   1.046       .  S
N1142      H1146   1.046       .  S
C1147      C1148   1.403       .  A
C1147      C1152   1.396       .  A
C1147      H1154   1.084       .  S
C1148      C2365   1.417   1_455  A
C1149      C2364   1.417       .  A
C1149      C1150   1.409       .  A
C1149      N1156   1.438       .  S
C1150      C1151   1.407       .  A
C1150      H1155   1.083       .  S
C1151      C2368   1.421       .  A
C1152      C2367   1.421       .  A
C1152      N1153   1.433       .  S
N1153      H1157   1.045       .  S
N1153      H1158   1.045       .  S
N1156      H1159   1.045       .  S
N1156      H1160   1.046       .  S
C1161      C2378   1.406       .  A
C1161      C1166   1.407       .  A
C1161      H1168   1.083       .  S
C1162      C2139   1.486       .  S
C1162      C2377   1.406   1_455  A
C1162      C1163   1.414       .  A
C1163      C1164   1.404       .  A
C1163      N1170   1.438       .  S
C1164      C1165   1.405       .  A
C1164      H1169   1.083       .  S
C1165      C2382   1.414   1_455  A
C1166      C2381   1.414       .  A
C1166      N1167   1.438       .  S
N1167      H1171   1.046       .  S
N1167      H1172   1.046       .  S
N1170      H1173   1.046       .  S
N1170      H1174   1.046       .  S
C1175      C1176   1.405       .  A
C1175      C1180   1.399       .  A
C1175      H1182   1.084       .  S
C1176      C2393   1.418   1_455  A
C1177      C2392   1.418       .  A
C1177      C1178   1.399       .  A
C1177      N1184   1.433       .  S
C1178      C2395   1.404       .  A
C1178      H1183   1.084       .  S
C1179      C2140   1.486       .  S
C1179      C2394   1.404   1_455  A
C1179      C1180   1.419       .  A
C1180      N1181   1.433       .  S
N1181      H1185   1.045       .  S
N1181      H1186   1.046       .  S
N1184      H1187   1.046       .  S
N1184      H1188   1.044       .  S
C1189      C2406   1.401       .  A
C1189      C1194   1.402       .  A
C1189      H1196   1.084       .  S
C1190      C2405   1.401   1_455  A
C1190      C1191   1.413   1_556  A
C1191      C1192   1.409       .  A
C1192      C1193   1.409   1_454  A
C1193      C2410   1.420       .  A
C1194      C2409   1.420       .  A
C1194      N1195   1.439       .  S
N1195      H1199   1.046       .  S
N1195      H1200   1.046       .  S
N1198      H1201   1.046       .  S
N1198      H1202   1.046       .  S
C1203      C1204   1.409       .  A
C1203      C1208   1.409       .  A
C1203      H1210   1.083       .  S
C1204      C2141   1.490       .  S
C1204      C2421   1.412       .  A
C1205      C2420   1.412       .  A
C1205      C1206   1.400       .  A
C1205      N1212   1.433       .  S
C1206      C2423   1.406       .  A
C1206      H1211   1.084       .  S
C1207      C2422   1.406       .  A
C1207      C1208   1.412       .  A
C1208      N1209   1.437       .  S
N1209      H1213   1.046       .  S
N1209      H1214   1.046       .  S
N1212      H1215   1.046       .  S
N1212      H1216   1.046       .  S
O1217     Ni1225   1.920       .  S
O1218     Ni1529   1.916       .  S
O1219     Ni1529   1.918       .  S
O1219      C1229   1.282       .  A
O1220     Ni1225   1.921       .  S
O1220      C1230   1.281       .  A
O1221     Ni1530   1.912       .  S
O1222     Ni1226   1.915       .  S
O1223     Ni1226   1.918   1_554  S
O1223      C1228   1.282   1_655  A
O1224     Ni1530   1.916       .  S
O1224      C1227   1.282   1_655  A
Ni1225     O1522   1.918       .  S
Ni1225     O1523   1.920       .  S
Ni1226     O1525   1.913       .  S
Ni1226     O1528   1.915       .  S
C1230      C1494   1.479       .  S
O1231     Ni1239   1.913       .  S
O1232     Ni1239   1.913       .  S
O1233     Ni1239   1.917       .  S
O1234     Ni1239   1.918       .  S
O1235     Ni1240   1.917       .  S
O1235      C1244   1.282       .  A
O1236     Ni1240   1.918       .  S
O1236      C1243   1.282       .  A
O1237     Ni1240   1.921       .  S
O1237      C1242   1.281       .  A
O1238     Ni1240   1.918       .  S
O1238      C1241   1.283       .  A
C1241      C1452   1.489       .  S
C1242      C1438   1.490       .  S
C1243      C1480   1.488       .  S
C1244      C1469   1.486       .  S
O1245     Ni1251   1.915       .  S
O1245      C1874   1.269       .  A
O1246     Ni1269   1.898       .  S
O1246      C1559   1.266       .  A
O1247      H1270   0.966       .  S
O1247     Ni1555   1.914   1_554  S
O1247     Ni1871   1.924       .  S
C1248      O1265   1.269   1_454  A
C1248      C1511   1.485       .  S
O1249     Ni1268   1.922       .  S
O1249      C1863   1.271       .  A
O1250     Ni1268   1.900       .  S
O1250      C1252   1.271       .  A
Ni1251     O1254   1.935       .  S
Ni1251     O1256   1.899       .  S
Ni1251     O1551   1.914       .  S
C1252      C1424   1.474       .  S
O1253     Ni1269   1.906       .  S
O1253      C1259   1.267       .  A
C1255      O1550   1.266   1_554  A
C1255      O1857   1.271       .  A
C1255      C1382   1.477   1_554  S
O1257     Ni1268   1.930       .  S
C1258      O1264   1.274       .  A
C1258      C1410   1.482       .  S
C1259      C1497   1.493       .  S
H1260      O1261   0.966       .  S
O1261     Ni1877   1.924   1_545  S
O1261     Ni1572   1.914       .  S
O1262     Ni1263   1.946       .  S
Ni1263     O1267   1.915       .  S
Ni1263     O1265   1.911   1_554  S
Ni1263     O1855   1.923   1_545  S
O1264     Ni1269   1.935       .  S
C1266      O1853   1.269       .  A
C1266      O1571   1.272   1_565  A
C1266      C1396   1.482       .  S
O1267      C1570   1.272   1_544  A
Ni1268     O1565   1.913   1_554  S
Ni1269     O1869   1.923       .  S
O1271     Ni1277   1.919       .  S
O1271      C1900   1.270       .  A
O1272     Ni1295   1.909       .  S
O1272      C1281   1.270       .  A
O1273      H1296   0.965       .  S
O1273     Ni1277   1.915       .  S
O1273     Ni1897   1.931       .  S
C1274      O1291   1.270   1_455  A
C1274      C1455   1.488       .  S
O1275     Ni1294   1.922       .  S
O1275      C1889   1.272       .  A
O1276     Ni1294   1.901       .  S
O1276      C1278   1.271       .  A
Ni1277     O1280   1.931       .  S
Ni1277     O1282   1.897       .  S
C1278      C1413   1.486       .  S
O1279     Ni1295   1.909       .  S
O1279      C1285   1.267       .  A
C1281      O1883   1.272       .  A
C1281      C1354   1.487       .  S
O1283     Ni1294   1.932       .  S
C1284      O1290   1.280       .  A
C1284      C1427   1.486       .  S
C1285      C1441   1.487       .  S
H1286      O1287   0.966       .  S
O1287     Ni1903   1.912   1_545  S
O1287     Ni1294   1.911       .  S
O1288     Ni1289   1.940       .  S
Ni1289     O1293   1.906       .  S
Ni1289     O1291   1.910       .  S
Ni1289     O1881   1.928   1_545  S
O1290     Ni1295   1.940       .  S
C1292      O1879   1.271       .  A
C1292      O1293   1.268   1_565  A
C1292      C1371   1.476       .  S
Ni1295     O1895   1.910       .  S
O1297     Ni1305   1.916       .  S
O1297      C1915   1.280   1_545  A
O1298     Ni1305   1.913       .  S
O1298      C2220   1.282   1_545  A
O1299     Ni1609   1.925   1_554  S
O1299      C1917   1.283   1_545  A
O1300     Ni1305   1.920       .  S
O1300      C1918   1.282   1_545  A
O1301     Ni1610   1.920       .  S
O1301      C1310   1.281       .  A
O1302     Ni1306   1.922   1_554  S
O1302      C1309   1.281       .  A
O1303     Ni1306   1.918       .  S
O1303      C1308   1.281       .  A
O1304     Ni1306   1.918       .  S
O1304      C1611   1.283       .  A
Ni1305     O1603   1.919       .  S
Ni1305    Ni2218   2.383   1_545  S
Ni1306     O1605   1.923       .  S
Ni1306    Ni2217   2.383       .  S
C1307      O1905   1.279       .  A
C1307      O1608   1.284       .  A
C1307      C1399   1.491       .  S
C1308      O2210   1.282       .  A
C1308      C1385   1.488       .  S
C1309      O1907   1.283       .  A
C1309      C1340   1.493       .  S
C1310      O1908   1.282       .  A
C1310      C1326   1.480       .  S
O1311     Ni1319   1.916       .  S
O1311      C1929   1.283       .  A
O1312     Ni1319   1.917       .  S
O1312      C1930   1.281       .  A
O1313     Ni1319   1.920       .  S
O1313      C1931   1.281       .  A
O1314     Ni1319   1.919       .  S
O1314      C1932   1.281       .  A
O1315     Ni1320   1.916       .  S
O1315      C1324   1.281       .  A
O1316     Ni1320   1.919       .  S
O1316      C1323   1.282       .  A
O1317     Ni1320   1.920       .  S
O1317      C1322   1.283       .  A
O1318     Ni1320   1.922       .  S
O1318      C1321   1.281       .  A
Ni1319    Ni1928   2.383   1_545  S
Ni1320    Ni1927   2.384       .  S
C1321      O1919   1.282       .  A
C1321      C1357   1.492       .  S
C1322      O1920   1.280       .  A
C1322      C1976   1.483       .  S
C1323      O1921   1.281       .  A
C1323      C1343   1.493       .  S
C1324      O1922   1.282       .  A
C1324      C1329   1.479       .  S
C1325      C1326   1.404       .  A
C1325      C1330   1.403       .  A
C1325      H1332   1.084       .  S
C1326      C1935   1.418       .  A
C1327      C1934   1.418   1_545  A
C1327      C1328   1.403       .  A
C1327      N1334   1.440       .  S
C1328      C1937   1.404       .  A
C1328      H1333   1.084       .  S
C1329      C1936   1.403       .  A
C1329      C1330   1.419       .  A
C1330      N1331   1.440       .  S
N1331      H1335   1.046       .  S
N1331      H1336   1.042       .  S
N1334      H1337   1.042       .  S
N1334      H1338   1.046       .  S
C1339      C1948   1.406   1_545  A
C1339      C1344   1.403       .  A
C1339      H1346   1.084       .  S
C1340      C1947   1.406       .  A
C1340      C1341   1.419       .  A
C1341      C1342   1.402       .  A
C1341      N1348   1.433       .  S
C1342      C1343   1.407       .  A
C1342      H1347   1.084       .  S
C1343      C1952   1.419       .  A
C1344      C1951   1.420       .  A
C1344      N1345   1.433       .  S
N1345      H1349   1.046       .  S
N1345      H1350   1.045       .  S
N1348      H1351   1.045       .  S
N1348      H1352   1.045       .  S
C1353      C1354   1.405       .  A
C1353      C1358   1.404       .  A
C1353      H1360   1.084       .  S
C1354      C1963   1.416       .  A
C1355      C1962   1.416       .  A
C1355      C1356   1.403       .  A
C1355      N1362   1.439       .  S
C1356      C1965   1.406       .  A
C1356      H1361   1.083       .  S
C1357      C1964   1.406       .  A
C1357      C1358   1.421       .  A
C1358      N1359   1.432       .  S
N1359      H1363   1.045       .  S
N1359      H1364   1.046       .  S
N1362      H1365   1.046       .  S
N1362      H1366   1.046       .  S
C1367      C1976   1.403       .  A
C1367      C1372   1.401       .  A
C1367      H1374   1.084       .  S
C1368      C1930   1.483       .  S
C1368      C1975   1.404   1_545  A
C1368      C1369   1.412       .  A
C1369      C1370   1.403       .  A
C1369      N1376   1.432       .  S
C1370      C1371   1.403   1_545  A
C1370      H1375   1.084       .  S
C1371      C1980   1.419       .  A
C1372      C1979   1.418       .  A
C1372      N1373   1.440       .  S
N1373      H1377   1.046       .  S
N1373      H1378   1.043       .  S
N1376      H1379   1.046       .  S
N1376      H1380   1.046       .  S
C1381      C1686   1.404       .  A
C1381      C1386   1.408       .  A
C1381      H1388   1.084       .  S
C1382      C1685   1.403   1_556  A
C1382      C1991   1.410       .  A
C1383      C1990   1.411       .  A
C1383      C1384   1.402       .  A
C1383      N1390   1.439       .  S
C1384      C1993   1.406   1_545  A
C1384      H1389   1.083       .  S
C1385      C1992   1.405       .  A
C1385      C1690   1.419   1_556  A
C1386      C1689   1.418       .  A
C1386      N1387   1.438       .  S
N1387      H1391   1.046       .  S
N1387      H1392   1.046       .  S
N1390      H1393   1.046       .  S
N1390      H1394   1.046       .  S
C1395      C1396   1.403   1_545  A
C1395      C1400   1.410       .  A
C1395      H1402   1.083       .  S
C1396      C2309   1.416       .  A
C1397      C2308   1.416       .  A
C1397      C1398   1.395       .  A
C1397      N1404   1.433       .  S
C1398      C1703   1.404       .  A
C1398      H1403   1.084       .  S
C1399      C1702   1.404       .  A
C1399      C2008   1.420       .  A
C1400      C2007   1.419   1_545  A
C1400      N1401   1.438       .  S
N1401      H1405   1.046       .  S
N1401      H1406   1.045       .  S
N1404      H1407   1.046       .  S
N1404      H1408   1.044       .  S
C1409      C2022   1.403       .  A
C1409      H1416   1.083       .  S
C1410      C2019   1.412       .  A
C1411      C2018   1.413   1_545  A
C1411      C1412   1.398       .  A
C1411      N2026   1.433       .  S
C1412      C1413   1.405       .  A
C1412      H1417   1.084       .  S
C1414      C2017   1.405       .  A
C1414      N1415   1.439       .  S
N1415      H2027   1.046       .  S
N1415      H1420   1.045       .  S
N1418      C2019   1.434       .  S
N1418      H2029   1.046       .  S
N1418      H2030   1.046       .  S
H1419      N2023   1.046       .  S
H1421      N2026   1.046       .  S
H1422      N2026   1.046   1_565  S
C1423      C1428   1.397       .  A
C1423      H1430   1.084       .  S
C1424      C1425   1.415   1_545  A
C1425      C1426   1.396       .  A
C1425      N1432   1.433       .  S
C1426      C2035   1.402       .  A
C1426      H1431   1.084       .  S
C1427      C2034   1.405       .  A
C1428      N1429   1.433       .  S
N1429      H1433   1.045       .  S
N1429      H1434   1.045       .  S
N1432      H1435   1.044       .  S
N1432      H1436   1.046       .  S
C1437      C1442   1.399       .  A
C1437      H1444   1.084       .  S
C1438      C1439   1.418       .  A
C1439      C1440   1.410       .  A
C1439      N1446   1.438       .  S
C1440      C1441   1.406       .  A
C1440      H1445   1.084       .  S
C1442      N1443   1.433       .  S
N1443      H1447   1.046       .  S
N1443      H1448   1.046       .  S
N1446      H1449   1.046       .  S
N1446      H1450   1.046       .  S
C1451      C1452   1.403       .  A
C1451      C1456   1.395       .  A
C1451      H1458   1.084       .  S
C1453      C1454   1.409       .  A
C1453      N1460   1.438       .  S
C1454      C1455   1.405   1_655  A
C1454      H1459   1.084       .  S
C1456      N1457   1.433       .  S
N1457      H1461   1.045       .  S
N1457      H1462   1.045       .  S
N1460      H1463   1.045       .  S
N1460      H1464   1.046       .  S
C1465      C1470   1.406       .  A
C1465      H1472   1.083       .  S
C1466      C1467   1.414       .  A
C1467      C1468   1.406       .  A
C1467      N1474   1.438       .  S
C1468      C1469   1.405       .  A
C1468      H1473   1.084       .  S
C1470      N1471   1.438       .  S
N1471      H1475   1.046       .  S
N1471      H1476   1.046       .  S
N1474      H1477   1.046       .  S
N1474      H1478   1.046       .  S
C1479      C1480   1.406       .  A
C1479      C1484   1.400       .  A
C1479      H1486   1.084       .  S
C1481      C1482   1.399       .  A
C1481      N1488   1.432       .  S
C1482      H1487   1.084       .  S
C1483      C1484   1.418       .  A
C1484      N1485   1.433       .  S
N1485      H1489   1.044       .  S
N1485      H1490   1.046       .  S
N1488      H1491   1.046       .  S
N1488      H1492   1.045       .  S
C1493      C1498   1.403       .  A
C1493      H1500   1.084       .  S
C1494      C1495   1.410       .  A
C1495      C1496   1.408       .  A
C1495      N1806   1.438       .  S
C1496      C1497   1.409       .  A
C1496      H1805   1.083       .  S
C1498      N1499   1.439       .  S
N1499      H1503   1.046       .  S
N1499      H1504   1.046       .  S
H1501      C1800   1.083       .  S
N1502      C1799   1.438       .  S
N1502      H1505   1.046       .  S
N1502      H1506   1.046       .  S
C1507      C1508   1.409   1_656  A
C1507      C1512   1.408   1_556  A
C1507      H1514   1.083       .  S
C1509      C1510   1.400       .  A
C1509      N1516   1.433       .  S
C1510      H1515   1.084       .  S
C1511      C1512   1.412   1_455  A
C1512      N1513   1.437   1_554  S
N1513      H1517   1.046       .  S
N1513      H1518   1.046   1_556  S
N1516      H1519   1.046   1_554  S
N1516      H1520   1.046       .  S
O1521     Ni1529   1.917   1_556  S
O1523      C1533   1.282       .  A
O1524     Ni1529   1.920       .  S
O1524      C1534   1.281   1_554  A
O1526     Ni1530   1.914       .  S
O1527     Ni1530   1.919       .  S
O1527      C1532   1.282   1_655  A
O1528      C1531   1.281   1_655  A
C1534      C1798   1.479       .  S
O1535     Ni1543   1.912       .  S
O1536     Ni1543   1.912       .  S
O1537     Ni1543   1.918       .  S
O1538     Ni1543   1.919       .  S
O1539     Ni1544   1.913       .  S
O1539      C1548   1.281       .  A
O1540     Ni1544   1.916       .  S
O1540      C1547   1.281       .  A
O1541     Ni1544   1.920       .  S
O1541      C1546   1.282       .  A
O1542     Ni1544   1.918       .  S
O1542      C1545   1.283       .  A
C1545      C1756   1.489       .  S
C1546      C1742   1.487       .  S
C1547      C1784   1.488       .  S
C1548      C1773   1.486       .  S
O1549     Ni1555   1.916       .  S
O1549      C2178   1.270       .  A
O1550     Ni1573   1.901   1_556  S
O1551      H1574   0.966       .  S
O1551     Ni2175   1.924       .  S
C1552      O1569   1.269   1_455  A
C1552      C1815   1.485       .  S
O1553     Ni1572   1.920       .  S
O1553      C2167   1.271       .  A
O1554     Ni1572   1.899       .  S
O1554      C1556   1.271       .  A
Ni1555     O1558   1.935       .  S
Ni1555     O1560   1.899       .  S
C1556      C1728   1.482       .  S
O1557     Ni1573   1.906       .  S
O1557      C1563   1.267   1_554  A
C1559      O2161   1.271       .  A
C1559      C1686   1.479       .  S
O1561     Ni1572   1.928       .  S
C1562      O1568   1.276       .  A
C1562      C1714   1.484       .  S
C1563      C1801   1.493       .  S
H1564      O1565   0.966       .  S
O1565     Ni2181   1.923   1_546  S
O1566     Ni1567   1.946       .  S
Ni1567     O1571   1.915       .  S
Ni1567     O1569   1.914       .  S
Ni1567     O2159   1.922   1_545  S
O1568     Ni1573   1.939   1_556  S
C1570      O2157   1.269       .  A
C1570      C1700   1.482   1_556  S
Ni1573     O2173   1.922   1_554  S
O1575     Ni1581   1.920       .  S
O1575      C2204   1.271       .  A
O1576     Ni1599   1.910       .  S
O1576      C1585   1.270       .  A
O1577      H1600   0.965       .  S
O1577     Ni1581   1.917       .  S
O1577     Ni2201   1.931       .  S
C1578      O1595   1.270   1_455  A
C1578      C1759   1.486       .  S
O1579     Ni1598   1.919       .  S
O1579      C2193   1.271       .  A
O1580     Ni1598   1.899       .  S
O1580      C1582   1.270       .  A
Ni1581     O1584   1.933       .  S
Ni1581     O1586   1.899       .  S
C1582      C1717   1.486       .  S
O1583     Ni1599   1.909       .  S
O1583      C1589   1.268       .  A
C1585      O2187   1.272       .  A
C1585      C1658   1.488       .  S
O1587     Ni1598   1.930       .  S
C1588      O1594   1.279       .  A
C1588      C1731   1.485       .  S
C1589      C1745   1.490       .  S
H1590      O1591   0.966       .  S
O1591     Ni2207   1.913   1_545  S
O1591     Ni1598   1.912       .  S
O1592     Ni1593   1.942       .  S
Ni1593     O1597   1.909       .  S
Ni1593     O1595   1.907       .  S
Ni1593     O2185   1.928   1_545  S
O1594     Ni1599   1.939       .  S
C1596      O2183   1.270       .  A
C1596      O1597   1.268   1_565  A
C1596      C1675   1.476       .  S
Ni1599     O2199   1.912       .  S
O1601     Ni1609   1.917       .  S
O1601      C2219   1.280   1_545  A
O1602     Ni1609   1.913       .  S
O1602      C1916   1.282   1_545  A
O1603      C2221   1.282   1_545  A
O1604     Ni1609   1.922       .  S
O1604      C2222   1.282   1_545  A
O1605      C1614   1.282       .  A
O1606     Ni1610   1.918       .  S
O1606      C1613   1.281       .  A
O1607     Ni1610   1.920       .  S
O1607      C1612   1.281       .  A
O1608     Ni1610   1.918       .  S
Ni1609    Ni1914   2.383   1_545  S
Ni1610    Ni1913   2.383       .  S
C1611      O2209   1.280       .  A
C1611      C1703   1.490   1_556  S
C1612      O1906   1.281       .  A
C1612      C1689   1.489       .  S
C1613      O2211   1.283       .  A
C1613      C1644   1.489       .  S
C1614      O2212   1.281       .  A
C1614      C1630   1.483       .  S
O1615     Ni1623   1.912       .  S
O1615      C2233   1.282       .  A
O1616     Ni1623   1.914       .  S
O1616      C2234   1.280       .  A
O1617     Ni1623   1.921       .  S
O1617      C2235   1.281       .  A
O1618     Ni1623   1.922       .  S
O1618      C2236   1.282   1_545  A
O1619     Ni1624   1.919       .  S
O1619      C1628   1.282       .  A
O1620     Ni1624   1.921       .  S
O1620      C1627   1.283       .  A
O1621     Ni1624   1.917       .  S
O1621      C1626   1.282       .  A
O1622     Ni1624   1.920       .  S
O1622      C1625   1.280       .  A
Ni1623    Ni2232   2.384   1_545  S
Ni1624    Ni2231   2.384       .  S
C1625      O2223   1.283       .  A
C1625      C1661   1.493       .  S
C1626      O2224   1.281       .  A
C1626      C2280   1.482       .  S
C1627      O2225   1.281       .  A
C1627      C1647   1.490       .  S
C1628      O2226   1.282       .  A
C1628      C1633   1.482       .  S
C1629      C1630   1.404       .  A
C1629      C1634   1.404       .  A
C1629      H1636   1.084       .  S
C1630      C2239   1.420       .  A
C1631      C2238   1.418   1_545  A
C1631      C1632   1.403       .  A
C1631      N1638   1.440       .  S
C1632      C2241   1.403   1_545  A
C1632      H1637   1.084       .  S
C1633      C2240   1.404       .  A
C1633      C1634   1.419       .  A
C1634      N1635   1.440       .  S
N1635      H1639   1.046       .  S
N1635      H1640   1.042       .  S
N1638      H1641   1.042       .  S
N1638      H1642   1.046       .  S
C1643      C2252   1.406   1_545  A
C1643      C1648   1.401       .  A
C1643      H1650   1.084       .  S
C1644      C2251   1.406       .  A
C1644      C1645   1.419       .  A
C1645      C1646   1.400       .  A
C1645      N1652   1.433       .  S
C1646      C1647   1.405       .  A
C1646      H1651   1.084       .  S
C1647      C2256   1.419       .  A
C1648      C2255   1.418       .  A
C1648      N1649   1.433       .  S
N1649      H1653   1.046       .  S
N1649      H1654   1.045       .  S
N1652      H1655   1.045       .  S
N1652      H1656   1.046       .  S
C1657      C1658   1.405       .  A
C1657      C1662   1.404       .  A
C1657      H1664   1.084       .  S
C1658      C2267   1.416       .  A
C1659      C2266   1.415       .  A
C1659      C1660   1.401       .  A
C1659      N1666   1.439       .  S
C1660      C2269   1.406       .  A
C1660      H1665   1.083       .  S
C1661      C2268   1.405       .  A
C1661      C1662   1.422       .  A
C1662      N1663   1.432       .  S
N1663      H1667   1.045       .  S
N1663      H1668   1.045       .  S
N1666      H1669   1.046       .  S
N1666      H1670   1.046       .  S
C1671      C2280   1.403       .  A
C1671      C1676   1.401       .  A
C1671      H1678   1.084       .  S
C1672      C2234   1.483       .  S
C1672      C2279   1.403   1_545  A
C1672      C1673   1.413       .  A
C1673      C1674   1.405       .  A
C1673      N1680   1.432       .  S
C1674      C1675   1.403   1_545  A
C1674      H1679   1.084       .  S
C1675      C2284   1.418       .  A
C1676      C2283   1.418       .  A
C1676      N1677   1.440       .  S
N1677      H1681   1.046       .  S
N1677      H1682   1.043       .  S
N1680      H1683   1.046       .  S
N1680      H1684   1.046       .  S
C1685      C1690   1.409       .  A
C1685      H1692   1.084       .  S
C1686      C2295   1.411       .  A
C1687      C2294   1.411       .  A
C1687      C1688   1.401       .  A
C1687      N1694   1.439       .  S
C1688      C2297   1.406   1_545  A
C1688      H1693   1.083       .  S
C1689      C2296   1.406       .  A
C1690      N1691   1.438       .  S
N1691      H1695   1.046       .  S
N1691      H1696   1.046       .  S
N1694      H1697   1.046       .  S
N1694      H1698   1.046       .  S
C1699      C1700   1.402   1_546  A
C1699      C1704   1.410       .  A
C1699      H1706   1.082       .  S
C1700      C2005   1.416       .  A
C1701      C2004   1.418       .  A
C1701      C1702   1.394       .  A
C1701      N1708   1.434       .  S
C1702      H1707   1.084       .  S
C1703      C2312   1.419   1_554  A
C1704      C2311   1.419   1_546  A
C1704      N1705   1.438       .  S
N1705      H1709   1.046       .  S
N1705      H1710   1.045   1_556  S
N1708      H1711   1.046       .  S
N1708      H1712   1.044       .  S
C1713      C2326   1.404       .  A
C1713      H1720   1.083       .  S
C1714      C2323   1.412       .  A
C1715      C2322   1.412   1_545  A
C1715      C1716   1.399       .  A
C1715      N2330   1.433       .  S
C1716      C1717   1.406       .  A
C1716      H1721   1.084       .  S
C1718      C2321   1.404   1_545  A
C1718      N1719   1.439       .  S
N1719      H2331   1.046   1_545  S
N1719      H1724   1.045   1_545  S
N1722      C2323   1.433       .  S
N1722      H2333   1.046       .  S
N1722      H2334   1.046       .  S
H1723      N2327   1.046       .  S
H1725      N2330   1.046       .  S
H1726      N2330   1.046   1_565  S
C1727      C1732   1.396       .  A
C1727      H1734   1.084       .  S
C1728      C1729   1.418   1_545  A
C1729      C1730   1.396       .  A
C1729      N1736   1.433       .  S
C1730      C2339   1.405       .  A
C1730      H1735   1.084       .  S
C1731      C2338   1.406       .  A
C1732      N1733   1.433       .  S
N1733      H1737   1.046       .  S
N1733      H1738   1.045       .  S
N1736      H1739   1.045   1_565  S
N1736      H1740   1.046       .  S
C1741      C1746   1.400       .  A
C1741      H1748   1.084       .  S
C1742      C1743   1.415       .  A
C1743      C1744   1.409       .  A
C1743      N1750   1.438       .  S
C1744      C1745   1.407       .  A
C1744      H1749   1.083       .  S
C1746      N1747   1.433       .  S
N1747      H1751   1.046       .  S
N1747      H1752   1.046       .  S
N1750      H1753   1.046       .  S
N1750      H1754   1.046       .  S
C1755      C1756   1.404       .  A
C1755      C1760   1.395       .  A
C1755      H1762   1.084       .  S
C1757      C1758   1.407       .  A
C1757      N1764   1.438       .  S
C1758      C1759   1.404   1_655  A
C1758      H1763   1.084       .  S
C1760      N1761   1.433       .  S
N1761      H1765   1.045       .  S
N1761      H1766   1.045       .  S
N1764      H1767   1.045       .  S
N1764      H1768   1.046       .  S
C1769      C1774   1.406       .  A
C1769      H1776   1.083       .  S
C1770      C1771   1.414       .  A
C1771      C1772   1.404       .  A
C1771      N1778   1.438       .  S
C1772      C1773   1.405       .  A
C1772      H1777   1.083       .  S
C1774      N1775   1.438       .  S
N1775      H1779   1.046       .  S
N1775      H1780   1.046       .  S
N1778      H1781   1.046       .  S
N1778      H1782   1.046       .  S
C1783      C1784   1.406       .  A
C1783      C1788   1.400       .  A
C1783      H1790   1.084       .  S
C1785      C1786   1.399       .  A
C1785      N1792   1.433       .  S
C1786      H1791   1.084       .  S
C1787      C1788   1.418       .  A
C1788      N1789   1.433       .  S
N1789      H1793   1.045       .  S
N1789      H1794   1.046       .  S
N1792      H1795   1.046       .  S
N1792      H1796   1.045       .  S
C1797      C1802   1.403       .  A
C1797      H1804   1.084       .  S
C1798      C1799   1.411   1_556  A
C1799      C1800   1.408       .  A
C1800      C1801   1.409   1_554  A
C1802      N1803   1.438       .  S
N1803      H1807   1.046       .  S
N1803      H1808   1.046       .  S
N1806      H1809   1.046       .  S
N1806      H1810   1.046       .  S
C1811      C1812   1.410   1_655  A
C1811      C1816   1.409       .  A
C1811      H1818   1.083       .  S
C1813      C1814   1.400       .  A
C1813      N1820   1.433       .  S
C1814      H1819   1.084       .  S
C1815      C1816   1.411   1_455  A
C1816      N1817   1.437       .  S
N1817      H1821   1.046       .  S
N1817      H1822   1.046       .  S
N1820      H1823   1.046       .  S
N1820      H1824   1.046       .  S
O1825     Ni1833   1.914       .  S
O1826     Ni2137   1.915       .  S
O1827     Ni2137   1.920       .  S
O1827      C1837   1.282       .  A
O1828     Ni1833   1.922       .  S
O1828      C1838   1.282       .  A
O1829     Ni2138   1.913       .  S
O1830     Ni1834   1.914   1_554  S
O1831     Ni1834   1.916   1_554  S
O1831      C1836   1.282   1_655  A
O1832     Ni2138   1.922       .  S
O1832      C1835   1.283   1_655  A
Ni1833     O2130   1.912       .  S
Ni1833     O2131   1.919       .  S
Ni1834     O2133   1.912       .  S
Ni1834     O2136   1.916       .  S
C1838      C2102   1.483       .  S
O1839     Ni1847   1.916       .  S
O1840     Ni1847   1.916       .  S
O1841     Ni1847   1.916       .  S
O1842     Ni1847   1.917       .  S
O1843     Ni1848   1.918       .  S
O1843      C1852   1.282       .  A
O1844     Ni1848   1.918       .  S
O1844      C1851   1.282       .  A
O1845     Ni1848   1.917       .  S
O1845      C1850   1.281       .  A
O1846     Ni1848   1.914       .  S
O1846      C1849   1.282       .  A
C1849      C2060   1.489       .  S
C1850      C2046   1.489       .  S
C1851      C2088   1.488       .  S
C1852      C2077   1.488       .  S
O1853     Ni1859   1.915       .  S
O1854     Ni1877   1.902       .  S
O1854      C2167   1.267   1_565  A
O1855      H1878   0.966       .  S
O1855     Ni2163   1.914   1_554  S
C1856      O1873   1.269   1_454  A
C1856      C2119   1.491       .  S
O1857     Ni1876   1.921       .  S
O1858     Ni1876   1.893       .  S
O1858      C1860   1.269       .  A
Ni1859     O1862   1.933       .  S
Ni1859     O1864   1.900       .  S
Ni1859     O2159   1.913       .  S
C1860      C2032   1.486       .  S
O1861     Ni1877   1.910       .  S
O1861      C1867   1.268       .  A
C1863      O2158   1.267   1_544  A
C1863      C1990   1.479   1_554  S
O1865     Ni1876   1.929       .  S
C1866      O1872   1.275       .  A
C1866      C2018   1.484       .  S
C1867      C2105   1.495       .  S
H1868      O1869   0.966       .  S
O1869     Ni2180   1.913       .  S
O1870     Ni1871   1.947       .  S
Ni1871     O1875   1.917       .  S
Ni1871     O1873   1.913   1_554  S
O1872     Ni1877   1.937       .  S
C1874      O2179   1.272       .  A
C1874      C2004   1.484       .  S
O1875      C2178   1.272   1_554  A
Ni1876     O2173   1.913   1_554  S
O1879     Ni1885   1.920       .  S
O1880     Ni1903   1.910       .  S
O1880      C1889   1.271   1_565  A
O1881      H1904   0.965       .  S
O1881     Ni1885   1.915       .  S
C1882      O1899   1.270   1_455  A
C1882      C2063   1.487       .  S
O1883     Ni1902   1.922       .  S
O1884     Ni1902   1.898       .  S
O1884      C1886   1.270       .  A
Ni1885     O1888   1.932       .  S
Ni1885     O1890   1.900       .  S
C1886      C2021   1.484       .  S
O1887     Ni1903   1.911       .  S
O1887      C1893   1.268       .  A
C1889      C1962   1.487       .  S
O1891     Ni1902   1.932       .  S
C1892      O1898   1.280       .  A
C1892      C2035   1.474       .  S
C1893      C2049   1.488       .  S
H1894      O1895   0.966       .  S
O1895     Ni1902   1.910       .  S
O1896     Ni1897   1.939       .  S
Ni1897     O1901   1.909       .  S
Ni1897     O1899   1.908       .  S
O1898     Ni1903   1.944       .  S
C1900      O1901   1.268       .  A
C1900      C1979   1.477       .  S
O1905     Ni1913   1.914       .  S
O1906     Ni1913   1.909       .  S
O1907     Ni2217   1.919   1_554  S
O1908     Ni1913   1.920       .  S
O1909     Ni2218   1.919       .  S
O1909      C1918   1.281       .  A
O1910     Ni1914   1.918   1_554  S
O1910      C1917   1.281       .  A
O1911     Ni1914   1.917       .  S
O1911      C1916   1.281       .  A
O1912     Ni1914   1.916       .  S
O1912      C2219   1.283       .  A
Ni1913     O2211   1.921       .  S
Ni1914     O2213   1.919       .  S
C1915      O2216   1.283       .  A
C1915      C2007   1.490       .  S
C1916      C1993   1.489       .  S
C1917      C1948   1.493       .  S
C1918      C1934   1.481       .  S
O1919     Ni1927   1.910       .  S
O1920     Ni1927   1.915       .  S
O1921     Ni1927   1.921       .  S
O1922     Ni1927   1.922       .  S
O1923     Ni1928   1.920       .  S
O1923      C1932   1.282   1_565  A
O1924     Ni1928   1.923       .  S
O1924      C1931   1.283   1_565  A
O1925     Ni1928   1.916       .  S
O1925      C1930   1.282   1_565  A
O1926     Ni1928   1.917       .  S
O1926      C1929   1.280   1_565  A
C1929      C1965   1.494       .  S
C1931      C1951   1.493       .  S
C1932      C1937   1.480       .  S
C1933      C1934   1.404       .  A
C1933      C1938   1.403       .  A
C1933      H1940   1.084       .  S
C1935      C1936   1.403       .  A
C1935      N1942   1.440       .  S
C1936      H1941   1.084       .  S
C1937      C1938   1.418   1_545  A
C1938      N1939   1.440       .  S
N1939      H1943   1.046       .  S
N1939      H1944   1.042       .  S
N1942      H1945   1.042       .  S
N1942      H1946   1.046       .  S
C1947      C1952   1.400       .  A
C1947      H1954   1.084       .  S
C1948      C1949   1.420       .  A
C1949      C1950   1.400       .  A
C1949      N1956   1.433       .  S
C1950      C1951   1.405   1_565  A
C1950      H1955   1.084       .  S
C1952      N1953   1.432       .  S
N1953      H1957   1.046       .  S
N1953      H1958   1.045       .  S
N1956      H1959   1.045       .  S
N1956      H1960   1.046       .  S
C1961      C1962   1.403   1_565  A
C1961      C1966   1.402       .  A
C1961      H1968   1.084       .  S
C1963      C1964   1.400       .  A
C1963      N1970   1.439       .  S
C1964      H1969   1.083       .  S
C1965      C1966   1.422   1_545  A
C1966      N1967   1.432       .  S
N1967      H1971   1.045       .  S
N1967      H1972   1.045       .  S
N1970      H1973   1.046       .  S
N1970      H1974   1.046       .  S
C1975      C1980   1.401       .  A
C1975      H1982   1.084       .  S
C1976      C1977   1.412       .  A
C1977      C1978   1.405       .  A
C1977      N1984   1.432       .  S
C1978      C1979   1.403       .  A
C1978      H1983   1.084       .  S
C1980      N1981   1.440       .  S
N1981      H1985   1.046       .  S
N1981      H1986   1.042       .  S
N1984      H1987   1.046       .  S
N1984      H1988   1.046       .  S
C1989      C2294   1.403   1_565  A
C1989      C1994   1.408       .  A
C1989      H1996   1.084       .  S
C1990      C2293   1.402   1_546  A
C1991      C1992   1.400       .  A
C1991      N1998   1.439       .  S
C1992      H1997   1.083       .  S
C1993      C2298   1.419       .  A
C1994      C2297   1.419       .  A
C1994      N1995   1.438       .  S
N1995      H1999   1.046       .  S
N1995      H2000   1.046       .  S
N1998      H2001   1.046       .  S
N1998      H2002   1.046       .  S
C2003      C2004   1.403       .  A
C2003      C2008   1.410       .  A
C2003      H2010   1.082       .  S
C2005      C2006   1.395       .  A
C2005      N2012   1.434       .  S
C2006      C2311   1.405       .  A
C2006      H2011   1.084       .  S
C2007      C2310   1.404       .  A
C2008      N2009   1.438       .  S
N2009      H2013   1.046       .  S
N2009      H2014   1.045       .  S
N2012      H2015   1.046       .  S
N2012      H2016   1.044   1_554  S
C2017      H2024   1.083       .  S
C2019      C2020   1.397       .  A
C2020      C2021   1.405       .  A
C2020      H2025   1.084       .  S
C2022      N2023   1.439       .  S
N2023      H2028   1.044       .  S
C2031      C2036   1.398       .  A
C2031      H2038   1.084       .  S
C2032      C2033   1.420       .  A
C2033      C2034   1.393       .  A
C2033      N2040   1.433       .  S
C2034      H2039   1.084       .  S
C2036      N2037   1.433       .  S
N2037      H2041   1.046       .  S
N2037      H2042   1.044       .  S
N2040      H2043   1.045       .  S
N2040      H2044   1.045       .  S
C2045      C2050   1.399       .  A
C2045      H2052   1.084       .  S
C2046      C2047   1.418       .  A
C2047      C2048   1.410       .  A
C2047      N2054   1.438       .  S
C2048      C2049   1.405       .  A
C2048      H2053   1.084       .  S
C2050      N2051   1.433       .  S
N2051      H2055   1.046       .  S
N2051      H2056   1.046       .  S
N2054      H2057   1.046       .  S
N2054      H2058   1.046       .  S
C2059      C2060   1.404       .  A
C2059      C2064   1.394       .  A
C2059      H2066   1.084       .  S
C2061      C2062   1.408       .  A
C2061      N2068   1.438       .  S
C2062      C2063   1.406   1_655  A
C2062      H2067   1.084       .  S
C2064      N2065   1.433       .  S
N2065      H2069   1.046       .  S
N2065      H2070   1.045       .  S
N2068      H2071   1.045       .  S
N2068      H2072   1.046       .  S
C2073      C2078   1.407       .  A
C2073      H2080   1.083       .  S
C2074      C2075   1.416       .  A
C2075      C2076   1.405       .  A
C2075      N2082   1.438       .  S
C2076      C2077   1.404       .  A
C2076      H2081   1.083       .  S
C2078      N2079   1.438       .  S
N2079      H2083   1.046       .  S
N2079      H2084   1.046       .  S
N2082      H2085   1.046       .  S
N2082      H2086   1.046       .  S
C2087      C2088   1.406       .  A
C2087      C2092   1.400       .  A
C2087      H2094   1.084       .  S
C2089      C2090   1.398       .  A
C2089      N2096   1.433       .  S
C2090      H2095   1.084       .  S
C2091      C2092   1.418       .  A
C2092      N2093   1.433       .  S
N2093      H2097   1.045       .  S
N2093      H2098   1.046       .  S
N2096      H2099   1.046       .  S
N2096      H2100   1.045       .  S
C2101      C2106   1.403       .  A
C2101      H2108   1.084       .  S
C2102      C2103   1.412       .  A
C2103      C2104   1.409       .  A
C2103      N2414   1.438       .  S
C2104      C2105   1.409       .  A
C2104      H2413   1.083       .  S
C2106      N2107   1.439       .  S
N2107      H2111   1.046       .  S
N2107      H2112   1.046       .  S
H2109      C2408   1.083       .  S
N2110      C2407   1.438       .  S
N2110      H2113   1.046       .  S
N2110      H2114   1.046       .  S
C2115      C2116   1.406   1_656  A
C2115      C2120   1.408       .  A
C2115      H2122   1.083       .  S
C2117      C2118   1.401       .  A
C2117      N2124   1.433       .  S
C2118      H2123   1.084       .  S
C2119      C2120   1.415   1_454  A
C2120      N2121   1.437       .  S
N2121      H2125   1.046       .  S
N2121      H2126   1.046   1_556  S
N2124      H2127   1.046       .  S
N2124      H2128   1.046       .  S
O2129     Ni2137   1.917   1_556  S
O2131      C2141   1.282       .  A
O2132     Ni2137   1.921       .  S
O2132      C2142   1.281   1_554  A
O2134     Ni2138   1.915       .  S
O2135     Ni2138   1.921       .  S
O2135      C2140   1.283   1_655  A
O2136      C2139   1.281   1_655  A
C2142      C2406   1.483       .  S
O2143     Ni2151   1.916       .  S
O2144     Ni2151   1.913       .  S
O2145     Ni2151   1.917       .  S
O2146     Ni2151   1.919       .  S
O2147     Ni2152   1.915       .  S
O2147      C2156   1.282       .  A
O2148     Ni2152   1.917       .  S
O2148      C2155   1.282       .  A
O2149     Ni2152   1.918       .  S
O2149      C2154   1.281       .  A
O2150     Ni2152   1.917       .  S
O2150      C2153   1.283       .  A
C2153      C2364   1.489       .  S
C2154      C2350   1.486       .  S
C2155      C2392   1.487       .  S
C2156      C2381   1.486       .  S
O2157     Ni2163   1.914       .  S
O2158     Ni2181   1.901   1_556  S
O2159      H2182   0.966       .  S
C2160      O2177   1.270   1_455  A
C2160      C2423   1.486       .  S
O2161     Ni2180   1.921       .  S
O2162     Ni2180   1.896       .  S
O2162      C2164   1.270       .  A
Ni2163     O2166   1.932       .  S
Ni2163     O2168   1.900       .  S
C2164      C2336   1.485       .  S
O2165     Ni2181   1.912       .  S
O2165      C2171   1.269   1_554  A
C2167      C2294   1.479       .  S
O2169     Ni2180   1.927       .  S
C2170      O2176   1.275       .  A
C2170      C2322   1.484       .  S
C2171      C2409   1.494       .  S
H2172      O2173   0.966       .  S
O2174     Ni2175   1.942       .  S
Ni2175     O2179   1.916       .  S
Ni2175     O2177   1.915       .  S
O2176     Ni2181   1.939   1_556  S
C2178      C2308   1.482   1_556  S
O2183     Ni2189   1.919       .  S
O2184     Ni2207   1.910       .  S
O2184      C2193   1.270   1_565  A
O2185      H2208   0.965       .  S
O2185     Ni2189   1.916       .  S
C2186      O2203   1.271   1_455  A
C2186      C2367   1.493       .  S
O2187     Ni2206   1.923       .  S
O2188     Ni2206   1.899       .  S
O2188      C2190   1.270       .  A
Ni2189     O2192   1.931       .  S
Ni2189     O2194   1.899       .  S
C2190      C2325   1.486       .  S
O2191     Ni2207   1.908       .  S
O2191      C2197   1.267       .  A
C2193      C2266   1.485       .  S
O2195     Ni2206   1.933       .  S
C2196      O2202   1.279       .  A
C2196      C2339   1.482       .  S
C2197      C2353   1.488       .  S
H2198      O2199   0.966       .  S
O2199     Ni2206   1.911       .  S
O2200     Ni2201   1.941       .  S
Ni2201     O2205   1.908       .  S
Ni2201     O2203   1.911       .  S
O2202     Ni2207   1.943       .  S
C2204      O2205   1.268       .  A
C2204      C2283   1.476       .  S
O2209     Ni2217   1.917       .  S
O2210     Ni2217   1.912       .  S
O2212     Ni2217   1.919       .  S
O2213      C2222   1.281       .  A
O2214     Ni2218   1.918       .  S
O2214      C2221   1.281       .  A
O2215     Ni2218   1.918       .  S
O2215      C2220   1.281       .  A
O2216     Ni2218   1.915       .  S
C2219      C2311   1.491   1_556  S
C2220      C2297   1.489       .  S
C2221      C2252   1.490       .  S
C2222      C2238   1.481       .  S
O2223     Ni2231   1.914       .  S
O2224     Ni2231   1.916       .  S
O2225     Ni2231   1.920       .  S
O2226     Ni2231   1.922       .  S
O2227     Ni2232   1.916       .  S
O2227      C2236   1.281       .  A
O2228     Ni2232   1.917       .  S
O2228      C2235   1.282   1_565  A
O2229     Ni2232   1.918       .  S
O2229      C2234   1.283   1_565  A
O2230     Ni2232   1.921       .  S
O2230      C2233   1.281   1_565  A
C2233      C2269   1.494       .  S
C2235      C2255   1.490       .  S
C2236      C2241   1.480       .  S
C2237      C2238   1.404       .  A
C2237      C2242   1.404       .  A
C2237      H2244   1.084       .  S
C2239      C2240   1.405       .  A
C2239      N2246   1.440       .  S
C2240      H2245   1.084       .  S
C2241      C2242   1.419       .  A
C2242      N2243   1.440       .  S
N2243      H2247   1.046       .  S
N2243      H2248   1.042       .  S
N2246      H2249   1.042       .  S
N2246      H2250   1.046       .  S
C2251      C2256   1.401       .  A
C2251      H2258   1.084       .  S
C2252      C2253   1.419       .  A
C2253      C2254   1.400       .  A
C2253      N2260   1.433       .  S
C2254      C2255   1.406   1_565  A
C2254      H2259   1.084       .  S
C2256      N2257   1.433       .  S
N2257      H2261   1.046       .  S
N2257      H2262   1.045       .  S
N2260      H2263   1.045       .  S
N2260      H2264   1.045       .  S
C2265      C2266   1.403   1_565  A
C2265      C2270   1.403       .  A
C2265      H2272   1.084       .  S
C2267      C2268   1.401       .  A
C2267      N2274   1.439       .  S
C2268      H2273   1.083       .  S
C2269      C2270   1.422   1_545  A
C2270      N2271   1.432       .  S
N2271      H2275   1.045       .  S
N2271      H2276   1.045       .  S
N2274      H2277   1.046       .  S
N2274      H2278   1.046       .  S
C2279      C2284   1.400       .  A
C2279      H2286   1.084       .  S
C2280      C2281   1.412       .  A
C2281      C2282   1.405       .  A
C2281      N2288   1.432       .  S
C2282      C2283   1.403       .  A
C2282      H2287   1.084       .  S
C2284      N2285   1.440       .  S
N2285      H2289   1.046       .  S
N2285      H2290   1.043       .  S
N2288      H2291   1.046       .  S
N2288      H2292   1.046       .  S
C2293      C2298   1.407   1_554  A
C2293      H2300   1.084       .  S
C2295      C2296   1.400       .  A
C2295      N2302   1.439       .  S
C2296      H2301   1.083       .  S
C2298      N2299   1.438   1_556  S
N2299      H2303   1.046       .  S
N2299      H2304   1.046       .  S
N2302      H2305   1.046       .  S
N2302      H2306   1.046       .  S
C2307      C2308   1.403   1_556  A
C2307      C2312   1.410       .  A
C2307      H2314   1.083       .  S
C2309      C2310   1.394       .  A
C2309      N2316   1.434       .  S
C2310      H2315   1.084       .  S
C2312      N2313   1.438       .  S
N2313      H2317   1.046       .  S
N2313      H2318   1.045   1_556  S
N2316      H2319   1.046       .  S
N2316      H2320   1.044       .  S
C2321      H2328   1.083       .  S
C2323      C2324   1.398       .  A
C2324      C2325   1.405       .  A
C2324      H2329   1.084       .  S
C2326      N2327   1.439       .  S
N2327      H2332   1.045       .  S
C2335      C2340   1.397       .  A
C2335      H2342   1.084       .  S
C2336      C2337   1.419       .  A
C2337      C2338   1.394       .  A
C2337      N2344   1.433       .  S
C2338      H2343   1.084       .  S
C2340      N2341   1.433       .  S
N2341      H2345   1.046       .  S
N2341      H2346   1.045   1_545  S
N2344      H2347   1.045       .  S
N2344      H2348   1.045       .  S
C2349      C2354   1.399       .  A
C2349      H2356   1.084       .  S
C2350      C2351   1.416       .  A
C2351      C2352   1.409       .  A
C2351      N2358   1.438       .  S
C2352      C2353   1.406       .  A
C2352      H2357   1.083       .  S
C2354      N2355   1.433       .  S
N2355      H2359   1.046       .  S
N2355      H2360   1.046       .  S
N2358      H2361   1.046       .  S
N2358      H2362   1.046       .  S
C2363      C2364   1.403       .  A
C2363      C2368   1.396       .  A
C2363      H2370   1.084       .  S
C2365      C2366   1.409       .  A
C2365      N2372   1.438       .  S
C2366      C2367   1.407   1_655  A
C2366      H2371   1.083       .  S
C2368      N2369   1.433       .  S
N2369      H2373   1.045       .  S
N2369      H2374   1.045       .  S
N2372      H2375   1.045       .  S
N2372      H2376   1.046       .  S
C2377      C2382   1.407       .  A
C2377      H2384   1.083       .  S
C2378      C2379   1.414       .  A
C2379      C2380   1.404       .  A
C2379      N2386   1.438       .  S
C2380      C2381   1.405       .  A
C2380      H2385   1.083       .  S
C2382      N2383   1.438       .  S
N2383      H2387   1.046       .  S
N2383      H2388   1.046       .  S
N2386      H2389   1.046       .  S
N2386      H2390   1.046       .  S
C2391      C2392   1.405       .  A
C2391      C2396   1.399       .  A
C2391      H2398   1.084       .  S
C2393      C2394   1.399       .  A
C2393      N2400   1.433       .  S
C2394      H2399   1.084       .  S
C2395      C2396   1.419       .  A
C2396      N2397   1.433       .  S
N2397      H2401   1.045       .  S
N2397      H2402   1.046       .  S
N2400      H2403   1.046       .  S
N2400      H2404   1.044       .  S
C2405      C2410   1.402       .  A
C2405      H2412   1.084       .  S
C2406      C2407   1.413   1_556  A
C2407      C2408   1.409       .  A
C2408      C2409   1.409   1_554  A
C2410      N2411   1.439       .  S
N2411      H2415   1.046       .  S
N2411      H2416   1.046       .  S
N2414      H2417   1.046       .  S
N2414      H2418   1.046       .  S
C2419      C2420   1.409   1_655  A
C2419      C2424   1.409       .  A
C2419      H2426   1.083       .  S
C2421      C2422   1.400       .  A
C2421      N2428   1.433       .  S
C2422      H2427   1.084       .  S
C2423      C2424   1.412   1_455  A
C2424      N2425   1.437       .  S
N2425      H2429   1.046       .  S
N2425      H2430   1.046       .  S
N2428      H2431   1.046       .  S
N2428      H2432   1.046       .  S
