geometry optimzed in LAMMPS
_audit_creation_date              2020-11-30 
_audit_creation_method            'lammps2cif' 
_symmetry_space_group_name_H-M    'P1' 
_symmetry_Int_Tables_number       1 
_symmetry_cell_setting            triclinic 
loop_ 
_symmetry_equiv_pos_as_xyz 
  x,y,z 
_cell_length_a                    58.013581 
_cell_length_b                    58.277914551492294 
_cell_length_c                    47.746816886330045 
_cell_angle_alpha                 90.05846608574186 
_cell_angle_beta                  89.62919593711212 
_cell_angle_gamma                 121.57011486719547 
loop_ 
_atom_site_label 
_atom_site_type_symbol 
_atom_site_fract_x 
_atom_site_fract_y 
_atom_site_fract_z 
_atom_site_charge 
C1          C  0.64723835  0.19193682  0.27255790     0.86400
C2          C  0.67489308  0.21529156  0.26182294    -0.53800
C3          C  0.69684125  0.21548918  0.27230762     0.09300
C4          C  0.68929021  0.19209697  0.29286027     0.20300
C5          C  0.64845789  0.16701083  0.26484483    -0.54600
C6          C  0.66992016  0.16661358  0.27583336     0.09400
C7          C  0.64946096  0.19405150  0.30452440    -0.54100
C8          C  0.67137403  0.19443992  0.31533362     0.10000
H9          H  0.67770015  0.22988377  0.24608327     0.14500
H10         H  0.70701248  0.19201670  0.30133613     0.00300
H11         H  0.63464456  0.15189784  0.25016148     0.14800
H12         H  0.63480644  0.19532588  0.31765472     0.14600
C13         C  0.82124760  0.35770238  0.22917011     0.86400
C14         C  0.79548916  0.33158946  0.23858668    -0.53800
C15         C  0.79348843  0.30842634  0.22937288     0.09300
C16         C  0.81710300  0.31340963  0.21007522     0.20300
C17         C  0.84484077  0.35424662  0.23715379    -0.54600
C18         C  0.84251478  0.33105047  0.22771160     0.09400
C19         C  0.82006033  0.35520695  0.19680773    -0.54100
C20         C  0.81809151  0.33226189  0.18682434     0.10000
H21         H  0.77994372  0.33134272  0.25160196     0.14500
H22         H  0.81549825  0.29468183  0.20235318     0.00300
H23         H  0.86184580  0.36880520  0.24963730     0.14800
H24         H  0.81980464  0.36929475  0.18231321     0.14600
O25         O  0.66768544  0.10550419  0.20168173    -0.57900
C26         C  0.67586767  0.14566762  0.26796505     0.74700
O27         O  0.69635716  0.07266918  0.26231059    -0.59100
C28         C  0.68176228  0.09938992  0.18669607     0.74700
C29         C  0.74856035  0.14815033  0.24775990     0.77100
Cd30       Cd  0.69190424  0.10985534  0.24568645     1.37500
O31         O  0.66204429  0.12797091  0.24975791    -0.57900
O32         O  0.73500295  0.14428996  0.22574162    -0.56700
C33         C  0.67200258  0.05670764  0.26916018     0.77100
O34         O  0.73591214  0.13325061  0.26860694    -0.59100
O35         O  0.69565839  0.14513741  0.27806464    -0.57500
O36         O  0.69991348  0.09771032  0.19924967    -0.57500
O37         O  0.65687170  0.06632291  0.26774770    -0.56700
O38         O  0.89168341  0.31924719  0.30451784    -0.57900
C39         C  0.86098164  0.32231276  0.23665146     0.74700
O40         O  0.93116378  0.30138805  0.23480932    -0.59100
C41         C  0.90172288  0.30757930  0.31751594     0.74700
C42         C  0.85232518  0.24600763  0.25598641     0.77100
Cd43       Cd  0.89311640  0.30202534  0.25798751     1.37500
O44         O  0.87755840  0.33388367  0.25642974    -0.57900
O45         O  0.86153382  0.25874149  0.27858226    -0.56700
C46         C  0.94656728  0.32674225  0.23350534     0.77100
O47         O  0.86404549  0.25880923  0.23371446    -0.59100
O48         O  0.86026180  0.30218747  0.22575476    -0.57500
O49         O  0.90862503  0.29421873  0.30255152    -0.57500
O50         O  0.93630085  0.34014124  0.24141219    -0.56700
O51         O  0.43992003  0.11937183  0.30693369    -0.57900
C52         C  0.47160833  0.14589342  0.23770950     0.74700
O53         O  0.37860893  0.06767937  0.24286423    -0.59100
C54         C  0.41860533  0.10259728  0.32007766     0.74700
C55         C  0.39663168  0.14486297  0.25941384     0.77100
Cd56       Cd  0.41826235  0.11024259  0.26056321     1.37500
O57         O  0.46690587  0.12907336  0.25701054    -0.57900
O58         O  0.40303521  0.13802730  0.28170392    -0.56700
C59         C  0.39121626  0.05563093  0.23884528     0.77100
O60         O  0.39791772  0.13353788  0.23722351    -0.59100
O61         O  0.45125992  0.14519650  0.22728996    -0.57500
O62         O  0.39781629  0.08876845  0.30528017    -0.57500
O63         O  0.41657299  0.06989679  0.24191846    -0.56700
O64         O  0.46838480  0.33497424  0.25248409    -0.57900
C65         C  0.42481255  0.30776989  0.18630756     0.74700
O66         O  0.39802575  0.25706376  0.27191307    -0.59100
C67         C  0.47311272  0.32173934  0.27006626     0.74700
C68         C  0.39273547  0.32708582  0.26641881     0.77100
Cd69       Cd  0.42042247  0.30065746  0.24612851     1.37500
O70         O  0.44508582  0.31360207  0.20119992    -0.57900
O71         O  0.41815486  0.33879756  0.26468835    -0.56700
C72         C  0.39774105  0.24350241  0.25093602     0.77100
O73         O  0.37990446  0.30213664  0.26102953    -0.59100
O74         O  0.40281767  0.29974416  0.19936278    -0.57500
O75         O  0.45302396  0.29957931  0.27831183    -0.57500
O76         O  0.40618723  0.25624568  0.22812206    -0.56700
C77         C  0.54907266  0.19043455  0.23291417     0.86400
C78         C  0.54628511  0.21312163  0.24555269    -0.53800
C79         C  0.52490050  0.21438642  0.23577171     0.09300
C80         C  0.50785704  0.19259676  0.21385869     0.20300
C81         C  0.52106085  0.16489673  0.23885031    -0.54600
C82         C  0.49963082  0.16609554  0.22914838     0.09400
C83         C  0.54930287  0.19400625  0.20106007    -0.54100
C84         C  0.52818507  0.19555775  0.19098743     0.10000
H85         H  0.56020845  0.22712903  0.26102532     0.14500
H86         H  0.49050996  0.19366111  0.20583666     0.00300
H87         H  0.51739952  0.14762701  0.25087500     0.14800
H88         H  0.56497078  0.19512405  0.18749032     0.14600
C89         C  0.55029564  0.35758933  0.27592723     0.86400
C90         C  0.54817828  0.33183237  0.26458728    -0.53800
C91         C  0.52598185  0.30841804  0.27364144     0.09300
C92         C  0.50826813  0.31251972  0.29464429     0.20300
C93         C  0.52281758  0.35447387  0.26971456    -0.54600
C94         C  0.50090960  0.33080480  0.27889386     0.09400
C95         C  0.54963515  0.35369391  0.30810100    -0.54100
C96         C  0.52768383  0.33035688  0.31793638     0.10000
H97         H  0.56316658  0.33199118  0.25071833     0.14500
H98         H  0.49062829  0.29323385  0.30216861     0.00300
H99         H  0.52082809  0.36941071  0.25824872     0.14800
H100        H  0.56495099  0.36734869  0.32257396     0.14600
C101        C  0.64963638  0.45226775  0.22702314     0.86400
C102        C  0.67406499  0.45220013  0.23891165    -0.53800
C103        C  0.69906315  0.47293036  0.23046078     0.09300
C104        C  0.69687233  0.49218571  0.20949355     0.20300
C105        C  0.65469546  0.48024835  0.23338379    -0.54600
C106        C  0.67930003  0.50114064  0.22490187     0.09400
C107        C  0.65409983  0.45284458  0.19498856    -0.54100
C108        C  0.67845500  0.47372823  0.18572547     0.10000
H109        H  0.67140172  0.43652151  0.25320460     0.14500
H110        H  0.71639181  0.50895135  0.20145611     0.00300
H111        H  0.63984122  0.48331819  0.24380840     0.14800
H112        H  0.63975104  0.43867063  0.18009277     0.14600
O113        O  0.67548589  0.53393197  0.25112951    -0.57900
C114        C  0.69971676  0.58004888  0.31447387     0.74700
O115        O  0.75122699  0.60168745  0.22952345    -0.59100
C116        C  0.68814968  0.52914343  0.23264741     0.74700
C117        C  0.68115384  0.61066147  0.23415481     0.77100
Cd118      Cd  0.70726241  0.58237864  0.25461409     1.37500
O119        O  0.68932146  0.55910909  0.29950364    -0.57900
O120        O  0.66847569  0.58548867  0.23790014    -0.56700
C121        C  0.76417399  0.60212952  0.25104811     0.77100
O122        O  0.70652649  0.62255962  0.23725988    -0.59100
O123        O  0.71285242  0.60222963  0.30144866    -0.57500
O124        O  0.70895208  0.54938968  0.22222068    -0.57500
O125        O  0.75116707  0.59588654  0.27393851    -0.56700
O126        O  0.89123758  0.55854918  0.20562720    -0.57900
C127        C  0.86188606  0.52812138  0.27304565     0.74700
O128        O  0.94156430  0.62096080  0.26865351    -0.59100
C129        C  0.90674413  0.57959194  0.19158234     0.74700
C130        C  0.86349833  0.60201772  0.25234479     0.77100
Cd131      Cd  0.89886230  0.58126946  0.25109496     1.37500
O132        O  0.88060261  0.53324982  0.25569836    -0.57900
O133        O  0.87031085  0.59553924  0.22988819    -0.56700
C134        C  0.95350650  0.60843378  0.27374073     0.77100
O135        O  0.87541647  0.60149356  0.27430149    -0.59100
O136        O  0.86120937  0.54808251  0.28235704    -0.57500
O137        O  0.91944528  0.60113917  0.20549618    -0.57500
O138        O  0.93905776  0.58314260  0.27143496    -0.56700
C139        C  0.82084581  0.45133261  0.27885407     0.86400
C140        C  0.79617290  0.45079058  0.26669654    -0.53800
C141        C  0.79197699  0.47059556  0.27581950     0.09300
C142        C  0.81436105  0.49047153  0.29616962     0.20300
C143        C  0.84486513  0.47951386  0.27253929    -0.54600
C144        C  0.84153171  0.50001146  0.28073557     0.09400
C145        C  0.81704659  0.45188210  0.31093927    -0.54100
C146        C  0.81394079  0.47236443  0.31994963     0.10000
H147        H  0.78293179  0.43552346  0.25182555     0.14500
H148        H  0.81184190  0.50708142  0.30363325     0.00300
H149        H  0.86330508  0.48303743  0.26256229     0.14800
H150        H  0.81744123  0.43831121  0.32605955     0.14600
C151        C  0.64604108  0.18672685  0.47987978     0.86400
C152        C  0.64825445  0.18933810  0.44780614    -0.53800
C153        C  0.66973458  0.18901047  0.43626581     0.09300
C154        C  0.68781726  0.18669369  0.45824473     0.20300
C155        C  0.64697451  0.16140107  0.48679119    -0.54600
C156        C  0.66866199  0.16125512  0.47548693     0.09400
C157        C  0.67392639  0.20993259  0.48998821    -0.54100
C158        C  0.69553805  0.20985359  0.47883515     0.10000
H159        H  0.63382081  0.19125312  0.43519730     0.14500
H160        H  0.70576441  0.18706861  0.44954009     0.00300
H161        H  0.63241679  0.14767625  0.00227788     0.14800
H162        H  0.67757149  0.22637144  0.00771674     0.14600
C163        C  0.81681135  0.35245527  0.02300839     0.86400
C164        C  0.81489183  0.35051553  0.05509502    -0.53800
C165        C  0.81335442  0.32812323  0.06609689     0.09300
C166        C  0.81485463  0.30972158  0.04378797     0.20300
C167        C  0.84201055  0.35072488  0.01631599    -0.54600
C168        C  0.84086608  0.32841274  0.02701870     0.09400
C169        C  0.79338967  0.32554965  0.01222279    -0.54100
C170        C  0.79197068  0.30308006  0.02281214     0.10000
H171        H  0.81551662  0.36603973  0.06824292     0.14500
H172        H  0.81440019  0.29187349  0.05245791     0.00300
H173        H  0.85900202  0.36393437  0.50477791     0.14800
H174        H  0.77941755  0.32443936  0.99646147     0.14600
O175        O  0.66259830  0.12377177  0.50245149    -0.57900
C176        C  0.68159677  0.10011929  0.06589917     0.74700
O177        O  0.69696027  0.07026963  0.48548333    -0.59100
C178        C  0.67575920  0.14125057  0.48371895     0.74700
C179        C  0.75004672  0.14882423  0.00829845     0.77100
Cd180      Cd  0.69321401  0.10874398  0.00678883     1.37500
O181        O  0.66977416  0.10828590  0.05032687    -0.57900
O182        O  0.73547381  0.13975776  0.03005656    -0.56700
C183        C  0.67175629  0.05351973  0.48528958     0.77100
O184        O  0.74023905  0.13717144  0.48577522    -0.59100
O185        O  0.69797595  0.09518571  0.05375853    -0.57500
O186        O  0.69626117  0.14173356  0.47372818    -0.57500
O187        O  0.65851130  0.06351196  0.98875616    -0.56700
O188        O  0.89218178  0.31952341  0.45359246    -0.57900
C189        C  0.86076485  0.32102719  0.01917017     0.74700
O190        O  0.86761976  0.26002441  0.02479265    -0.59100
C191        C  0.90183874  0.30831162  0.43910559     0.74700
C192        C  0.94904095  0.32571292  0.02114742     0.77100
Cd193      Cd  0.89478881  0.30146514  0.49890099     1.37500
O194        O  0.87660734  0.33196565  0.99850018    -0.57900
O195        O  0.93663375  0.34077167  0.51652634    -0.56700
C196        C  0.85631301  0.24471897  0.50428882     0.77100
O197        O  0.93558507  0.30179438  0.01224125    -0.59100
O198        O  0.86201737  0.30265445  0.03178711    -0.57500
O199        O  0.90891889  0.29433772  0.45263160    -0.57500
O200        O  0.86323197  0.25677556  0.48097032    -0.56700
O201        O  0.44111532  0.30640946  0.05100693    -0.57900
C202        C  0.47388142  0.31953191  0.48567511     0.74700
O203        O  0.39530347  0.25377946  0.48862184    -0.59100
C204        C  0.42174206  0.30471652  0.06509699     0.74700
C205        C  0.39197987  0.32368150  0.48407999     0.77100
Cd206      Cd  0.41829713  0.29567996  0.00549622     1.37500
O207        O  0.46918983  0.33158487  0.50481549    -0.57900
O208        O  0.41528540  0.33355414  0.98695761    -0.56700
C209        C  0.39433994  0.23809204  0.00265392     0.77100
O210        O  0.38021297  0.29873201  0.48923386    -0.59100
O211        O  0.45347147  0.29899225  0.47529966    -0.57500
O212        O  0.40099048  0.29938665  0.05131291    -0.57500
O213        O  0.39850955  0.25043536  0.02563397    -0.56700
O214        O  0.43912991  0.11104592  0.45665060    -0.57900
C215        C  0.47181124  0.14358093  0.02291550     0.74700
O216        O  0.39414641  0.12662143  0.02240946    -0.59100
C217        C  0.41851407  0.10275613  0.44147678     0.74700
C218        C  0.39219170  0.05381006  0.02018232     0.77100
Cd219      Cd  0.41627641  0.10761490  0.50127468     1.37500
O220        O  0.46718733  0.12538691  0.00537919    -0.57900
O221        O  0.41545841  0.06862735  0.52275503    -0.56700
C222        C  0.39563582  0.14104308  0.00177762     0.77100
O223        O  0.37928514  0.06518888  0.01431898    -0.59100
O224        O  0.45157483  0.14458031  0.03110613    -0.57500
O225        O  0.39671050  0.09615099  0.45427116    -0.57500
O226        O  0.39750478  0.13396795  0.48498201    -0.56700
C227        C  0.54925749  0.18733255  0.02811887     0.86400
C228        C  0.54902293  0.19013551  0.06016791    -0.53800
C229        C  0.52764494  0.19137458  0.07056307     0.09300
C230        C  0.50799670  0.18952576  0.04775027     0.20300
C231        C  0.52117733  0.16215944  0.02189306    -0.54600
C232        C  0.49974647  0.16343580  0.03173489     0.09400
C233        C  0.54691554  0.21054322  0.01623930    -0.54100
C234        C  0.52574181  0.21201298  0.02663492     0.10000
H235        H  0.56460680  0.19115017  0.07354314     0.14500
H236        H  0.49059112  0.19062128  0.05566901     0.00300
H237        H  0.51748087  0.14505317  0.00957621     0.14800
H238        H  0.56089030  0.22466162  0.00068511     0.14600
C239        C  0.55139182  0.35494741  0.48069374     0.86400
C240        C  0.55123061  0.35205375  0.44869928    -0.53800
C241        C  0.52986239  0.32869924  0.43843413     0.09300
C242        C  0.50966971  0.31032304  0.46129441     0.20300
C243        C  0.52365270  0.35165715  0.48721663    -0.54600
C244        C  0.50192694  0.32834450  0.47728377     0.09400
C245        C  0.54811229  0.32895511  0.49265111    -0.54100
C246        C  0.52680519  0.30554672  0.48246396     0.10000
H247        H  0.56648984  0.36755780  0.43508643     0.14500
H248        H  0.49184086  0.29168440  0.45324487     0.00300
H249        H  0.51869071  0.36338611  0.99671593     0.14800
H250        H  0.55923241  0.32715454  0.00841900     0.14600
C251        C  0.65006585  0.44959063  0.02304885     0.86400
C252        C  0.65298409  0.45002326  0.05502699    -0.53800
C253        C  0.67610836  0.47181763  0.06515540     0.09300
C254        C  0.69439337  0.49186393  0.04222510     0.20300
C255        C  0.65324049  0.47687086  0.01540436    -0.54600
C256        C  0.67605981  0.49890142  0.02588685     0.09400
C257        C  0.67670882  0.45296011  0.01172063    -0.54100
C258        C  0.69969098  0.47510432  0.02115212     0.10000
H259        H  0.63786084  0.43430929  0.06858271     0.14500
H260        H  0.71319961  0.50963331  0.05032647     0.00300
H261        H  0.63903690  0.47858121  0.00220039     0.14800
H262        H  0.67823816  0.44013019  0.99646043     0.14600
O263        O  0.69069088  0.55958078  0.44978438    -0.57900
C264        C  0.68456431  0.52691810  0.01854424     0.74700
O265        O  0.74904719  0.59672037  0.02551487    -0.59100
C266        C  0.70142803  0.58126604  0.43580683     0.74700
C267        C  0.68356480  0.61239122  0.01971388     0.77100
Cd268      Cd  0.70778060  0.58085540  0.49551665     1.37500
O269        O  0.67441705  0.53232508  0.99809110    -0.57900
O270        O  0.66970629  0.58552628  0.51106470    -0.56700
C271        C  0.76304008  0.59840812  0.00422882     0.77100
O272        O  0.70880826  0.62296475  0.01680426    -0.59100
O273        O  0.70334868  0.54681949  0.03152958    -0.57500
O274        O  0.71495393  0.60274683  0.44967576    -0.57500
O275        O  0.75164259  0.59041225  0.47797494    -0.56700
O276        O  0.89058371  0.55236132  0.05628928    -0.57900
C277        C  0.86171933  0.52197091  0.48874106     0.74700
O278        O  0.87630337  0.59667186  0.48675707    -0.59100
C279        C  0.90341400  0.57393525  0.07018051     0.74700
C280        C  0.95308986  0.60250285  0.48979067     0.77100
Cd281      Cd  0.89629545  0.57429193  0.01047855     1.37500
O282        O  0.87746299  0.52560890  0.50876530    -0.57900
O283        O  0.93660677  0.57566639  0.99125584    -0.56700
C284        C  0.86029284  0.59434890  0.00711715     0.77100
O285        O  0.93999258  0.61427836  0.49190694    -0.59100
O286        O  0.86421594  0.54288114  0.47772601    -0.57500
O287        O  0.91350503  0.59550651  0.05608292    -0.57500
O288        O  0.86357595  0.58452766  0.02924737    -0.56700
C289        C  0.81294399  0.44547786  0.48079897     0.86400
C290        C  0.81031289  0.44705535  0.44898872    -0.53800
C291        C  0.81187047  0.46999929  0.43991409     0.09300
C292        C  0.81526125  0.48944828  0.46361308     0.20300
C293        C  0.83901313  0.47186607  0.48902613    -0.54600
C294        C  0.84042439  0.49475242  0.47979288     0.09400
C295        C  0.79043074  0.44947740  0.49288154    -0.54100
C296        C  0.79191654  0.47258131  0.48434576     0.10000
H297        H  0.80752456  0.43133030  0.43466409     0.14500
H298        H  0.81620631  0.50800559  0.45627497     0.00300
H299        H  0.85326450  0.47305052  0.00069255     0.14800
H300        H  0.77371335  0.43614572  0.00385459     0.14600
O301        O  0.13635611  0.45926904  0.00246243    -0.57900
C302        C  0.11210564  0.41316462  0.43764784     0.74700
O303        O  0.14201070  0.38907769  0.01914278    -0.59100
C304        C  0.15385706  0.46362463  0.02077970     0.74700
C305        C  0.06519551  0.38065093  0.01896689     0.77100
Cd306      Cd  0.12023695  0.41270257  0.49730211     1.37500
O307        O  0.12548664  0.43464361  0.45157265    -0.57900
O308        O  0.07933670  0.40956266  0.51676834    -0.56700
C309        C  0.15596503  0.39122826  0.99760207     0.77100
O310        O  0.07898523  0.36991775  0.01457332    -0.59100
O311        O  0.10187592  0.39154961  0.45166531    -0.57500
O312        O  0.15399832  0.44330168  0.02980374    -0.57500
O313        O  0.15280654  0.40291260  0.47777810    -0.56700
O314        O  0.34250224  0.45654669  0.50268608    -0.57900
C315        C  0.31707834  0.40914286  0.06376599     0.74700
O316        O  0.26608506  0.39254101  0.48261225    -0.59100
C317        C  0.32999899  0.46133857  0.48422995     0.74700
C318        C  0.33305496  0.37804018  0.48385647     0.77100
Cd319      Cd  0.30999214  0.40736769  0.00430085     1.37500
O320        O  0.32929920  0.42996498  0.04857131    -0.57900
O321        O  0.34738295  0.40168552  0.98772018    -0.56700
C322        C  0.25274659  0.38889143  0.50507464     0.77100
O323        O  0.30779590  0.36733669  0.48680290    -0.59100
O324        O  0.30251835  0.38706442  0.05110892    -0.57500
O325        O  0.30903749  0.44114004  0.47423772    -0.57500
O326        O  0.26580775  0.39198585  0.02525712    -0.56700
C327        C  0.19985066  0.54039226  0.02780172     0.86400
C328        C  0.22349141  0.53805961  0.01672864    -0.53800
C329        C  0.22334214  0.51568004  0.02541655     0.09300
C330        C  0.19993697  0.49781965  0.04576237     0.20300
C331        C  0.17409637  0.51335236  0.02078905    -0.54600
C332        C  0.17430124  0.49118454  0.02965728     0.09400
C333        C  0.20227891  0.53909311  0.05999734    -0.54100
C334        C  0.20214620  0.51688571  0.06938918     0.10000
H335        H  0.23936631  0.55308646  0.00324214     0.14500
H336        H  0.19993659  0.47974805  0.05300256     0.00300
H337        H  0.15732103  0.51185195  0.00921111     0.14800
H338        H  0.20437868  0.55403958  0.07486371     0.14600
C339        C  0.36470639  0.53833091  0.48002340     0.86400
C340        C  0.33774488  0.53476100  0.49074717    -0.53800
C341        C  0.31500519  0.51311417  0.48013258     0.09300
C342        C  0.32084538  0.49657445  0.45923345     0.20300
C343        C  0.36135522  0.51097636  0.48690973    -0.54600
C344        C  0.33868131  0.48919464  0.47606479     0.09400
C345        C  0.36241589  0.53890843  0.44801483    -0.54100
C346        C  0.33993976  0.51708053  0.43694150     0.10000
H347        H  0.33501217  0.54760711  0.00685961     0.14500
H348        H  0.30224359  0.47896488  0.45063031     0.00300
H349        H  0.37435438  0.50930975  0.00205887     0.14800
H350        H  0.37732406  0.55541054  0.43505846     0.14600
O351        O  0.12082664  0.66365619  0.05313520    -0.57900
C352        C  0.16026414  0.66770533  0.48606268     0.74700
O353        O  0.08545562  0.68542766  0.48921528    -0.59100
C354        C  0.11407937  0.67809019  0.06642966     0.74700
C355        C  0.16060980  0.74032191  0.00438658     0.77100
Cd356      Cd  0.12286153  0.68346336  0.00688928     1.37500
O357        O  0.14173029  0.65365557  0.50370875    -0.57900
O358        O  0.15607709  0.72657205  0.02647001    -0.56700
C359        C  0.07000582  0.66030757  0.48615380     0.77100
O360        O  0.14783585  0.72925219  0.48570404    -0.59100
O361        O  0.16078056  0.68820867  0.47653429    -0.57500
O362        O  0.11016116  0.69376256  0.05178054    -0.57500
O363        O  0.07870514  0.64445777  0.99223831    -0.56700
O364        O  0.35061827  0.87146885  0.00774476    -0.57900
C365        C  0.32641918  0.89044624  0.44146780     0.74700
O366        O  0.27208896  0.85785414  0.02485748    -0.59100
C367        C  0.33664926  0.85190964  0.02422934     0.74700
C368        C  0.33748736  0.93778052  0.02233331     0.77100
Cd369      Cd  0.31847051  0.88322073  0.50109365     1.37500
O370        O  0.34076203  0.88488104  0.45640805    -0.57900
O371        O  0.35354250  0.92706211  0.52142820    -0.56700
C372        C  0.25991540  0.84348397  0.00370595     0.77100
O373        O  0.31267060  0.92204383  0.01725167    -0.59100
O374        O  0.30917024  0.89349623  0.45448686    -0.57500
O375        O  0.31435736  0.84864599  0.03243600    -0.57500
O376        O  0.27523195  0.84897207  0.48274189    -0.56700
C377        C  0.37331260  0.81311325  0.02976153     0.86400
C378        C  0.34822031  0.78804883  0.01765951    -0.53800
C379        C  0.32397107  0.78424140  0.02627235     0.09300
C380        C  0.32684479  0.80589919  0.04710888     0.20300
C381        C  0.36955203  0.83677785  0.02342073    -0.54600
C382        C  0.34525047  0.83296254  0.03192351     0.09400
C383        C  0.36855750  0.80918919  0.06174816    -0.54100
C384        C  0.34454707  0.80563566  0.07090920     0.10000
H385        H  0.34953063  0.77413410  0.00354476     0.14500
H386        H  0.30714913  0.80282844  0.05408189     0.00300
H387        H  0.38483762  0.85508426  0.01301404     0.14800
H388        H  0.38234472  0.80910948  0.07675961     0.14600
C389        C  0.20470559  0.63672021  0.48035071     0.86400
C390        C  0.22909188  0.66315560  0.49093256    -0.53800
C391        C  0.23036507  0.68600555  0.48194971     0.09300
C392        C  0.20721161  0.68048028  0.46186617     0.20300
C393        C  0.17969312  0.63835807  0.48740244    -0.54600
C394        C  0.18101183  0.66122493  0.47827061     0.09400
C395        C  0.20721639  0.64022167  0.44809616    -0.54100
C396        C  0.20838402  0.66288570  0.43834259     0.10000
H397        H  0.24496607  0.66457705  0.00367129     0.14500
H398        H  0.20834080  0.69907527  0.45450833     0.00300
H399        H  0.16258838  0.62359238  0.99894059     0.14800
H400        H  0.20800124  0.62653581  0.43341648     0.14600
C401        C  0.46717482  0.80702371  0.48149273     0.86400
C402        C  0.46601367  0.78187586  0.49308528    -0.53800
C403        C  0.48614880  0.77801294  0.48389834     0.09300
C404        C  0.50684342  0.80097778  0.46447968     0.20300
C405        C  0.49533005  0.83049878  0.48894721    -0.54600
C406        C  0.51606768  0.82734617  0.48079786     0.09400
C407        C  0.46867304  0.80426745  0.44935238    -0.54100
C408        C  0.48941570  0.80130140  0.44058142     0.10000
H409        H  0.45062381  0.77247296  0.01097902     0.14500
H410        H  0.52366728  0.79862187  0.45708332     0.00300
H411        H  0.49957129  0.85179027  0.00155244     0.14800
H412        H  0.45509869  0.80448596  0.43411957     0.14600
O413        O  0.57578189  0.87971402  0.05652073    -0.57900
C414        C  0.54410735  0.84696878  0.48935308     0.74700
O415        O  0.63653871  0.92919184  0.49618712    -0.59100
C416        C  0.59693640  0.89349442  0.07083120     0.74700
C417        C  0.61839804  0.84984818  0.00674782     0.77100
Cd418      Cd  0.59846417  0.88569610  0.01119983     1.37500
O419        O  0.55019782  0.86857166  0.00705645    -0.57900
O420        O  0.61127880  0.85504561  0.02981556    -0.56700
C421        C  0.62525158  0.93982487  0.98732470     0.77100
O422        O  0.62087757  0.86298187  0.48843395    -0.59100
O423        O  0.56438160  0.84700828  0.47935907    -0.57500
O424        O  0.61898806  0.90446971  0.05721579    -0.57500
O425        O  0.59986105  0.92433523  0.98801042    -0.56700
O426        O  0.57550397  0.68225121  0.45130558    -0.57900
C427        C  0.54300336  0.67363414  0.01568450     0.74700
O428        O  0.63800506  0.69291994  0.00792548    -0.59100
C429        C  0.59565157  0.68668519  0.43669546     0.74700
C430        C  0.61629378  0.74994362  0.00038007     0.77100
Cd431      Cd  0.59795993  0.69331559  0.49666621     1.37500
O432        O  0.54797009  0.66164623  0.99665752    -0.57900
O433        O  0.61522620  0.73944146  0.48088891    -0.56700
C434        C  0.62576069  0.66862891  0.01593186     0.77100
O435        O  0.61582190  0.73597172  0.02095157    -0.59100
O436        O  0.56322230  0.69393080  0.02657043    -0.57500
O437        O  0.61716038  0.69398155  0.45011035    -0.57500
O438        O  0.60003610  0.65484057  0.51573207    -0.56700
C439        C  0.46556915  0.63595636  0.02352414     0.86400
C440        C  0.46655970  0.66135244  0.01324845    -0.53800
C441        C  0.48734797  0.68542463  0.02320315     0.09300
C442        C  0.50678235  0.68144212  0.04200555     0.20300
C443        C  0.49340428  0.64104115  0.01427022    -0.54600
C444        C  0.51492367  0.66471710  0.02386373     0.09400
C445        C  0.46774316  0.63818614  0.05558162    -0.54100
C446        C  0.48903929  0.66177025  0.06536165     0.10000
H447        H  0.45192652  0.66004944  0.99826508     0.14500
H448        H  0.52408109  0.69999828  0.05067072     0.00300
H449        H  0.49660156  0.62782368  0.00114449     0.14800
H450        H  0.45426261  0.62181252  0.06953157     0.14600
O451        O  0.57561014  0.67740462  0.30134293    -0.57900
C452        C  0.54359603  0.67618568  0.23483739     0.74700
O453        O  0.61709434  0.73964145  0.23147681    -0.59100
C454        C  0.59721741  0.68727931  0.31531145     0.74700
C455        C  0.62651561  0.67047029  0.23394287     0.77100
Cd456      Cd  0.59754175  0.69554426  0.25574613     1.37500
O457        O  0.54858173  0.66381442  0.25329510    -0.57900
O458        O  0.60109718  0.65746101  0.23721534    -0.56700
C459        C  0.61706264  0.75230814  0.25309362     0.77100
O460        O  0.63805609  0.69560976  0.23757172    -0.59100
O461        O  0.56387461  0.69667864  0.22401499    -0.57500
O462        O  0.61900014  0.70044738  0.30147250    -0.57500
O463        O  0.61025602  0.73907522  0.27576249    -0.56700
O464        O  0.57725828  0.88435629  0.20617926    -0.57900
C465        C  0.54477811  0.85063622  0.27233102     0.74700
O466        O  0.61888133  0.86512046  0.27537199    -0.59100
C467        C  0.59907720  0.89669771  0.19218994     0.74700
C468        C  0.62288091  0.94155133  0.27461540     0.77100
Cd469      Cd  0.59817737  0.88778263  0.25150975     1.37500
O470        O  0.54954420  0.86838570  0.25412196    -0.57900
O471        O  0.59762275  0.92621410  0.27214752    -0.56700
C472        C  0.61781555  0.85167489  0.25395062     0.77100
O473        O  0.63663347  0.93081974  0.26956542    -0.59100
O474        O  0.56503317  0.85101661  0.28253079    -0.57500
O475        O  0.62062677  0.90583823  0.20607088    -0.57500
O476        O  0.61007938  0.85709460  0.23156863    -0.56700
C477        C  0.46611446  0.63756924  0.22756658     0.86400
C478        C  0.46873975  0.64052028  0.19559366    -0.53800
C479        C  0.48949461  0.66473324  0.18602784     0.09300
C480        C  0.50683638  0.68407867  0.20987226     0.20300
C481        C  0.49410525  0.64309958  0.23638450    -0.54600
C482        C  0.51540848  0.66727594  0.22720638     0.09400
C483        C  0.46601957  0.66214534  0.23854306    -0.54100
C484        C  0.48653653  0.68660327  0.22915309     0.10000
H485        H  0.45529499  0.62438768  0.18152082     0.14500
H486        H  0.52406717  0.70363320  0.20228529     0.00300
H487        H  0.49756175  0.62953357  0.24849383     0.14800
H488        H  0.45089878  0.66003974  0.25355344     0.14600
C489        C  0.46779079  0.80824010  0.28041329     0.86400
C490        C  0.46938491  0.80561773  0.31247071    -0.53800
C491        C  0.49081604  0.80374930  0.32095294     0.09300
C492        C  0.50861341  0.80401330  0.29664671     0.20300
C493        C  0.49556237  0.83238665  0.27252019    -0.54600
C494        C  0.51684586  0.83017769  0.28042456     0.09400
C495        C  0.46767605  0.78360251  0.26896179    -0.54100
C496        C  0.48892291  0.78092997  0.27677431     0.10000
H497        H  0.45532159  0.80520347  0.32773764     0.14500
H498        H  0.52582428  0.80272182  0.30426298     0.00300
H499        H  0.49805742  0.84955106  0.26084389     0.14800
H500        H  0.45207959  0.76993741  0.25458093     0.14600
C501        C  0.20533786  0.63946000  0.27419598     0.86400
C502        C  0.20834800  0.64180174  0.30612120    -0.53800
C503        C  0.20860260  0.66342755  0.31749652     0.09300
C504        C  0.20535807  0.68101584  0.29562466     0.20300
C505        C  0.17999434  0.64034094  0.26760512    -0.54600
C506        C  0.17957838  0.66158854  0.27898181     0.09400
C507        C  0.22848417  0.66718484  0.26335768    -0.54100
C508        C  0.22860466  0.68890850  0.27450225     0.10000
H509        H  0.21070357  0.62768352  0.31876148     0.14500
H510        H  0.20505897  0.69843266  0.30454430     0.00300
H511        H  0.16452638  0.62632956  0.25328470     0.14800
H512        H  0.24339249  0.67028335  0.24770854     0.14600
C513        C  0.37352707  0.80990939  0.23280218     0.86400
C514        C  0.36994210  0.80678699  0.20060523    -0.53800
C515        C  0.34704560  0.80510562  0.19083219     0.09300
C516        C  0.32991653  0.80760523  0.21392934     0.20300
C517        C  0.37226667  0.83508537  0.23908802    -0.54600
C518        C  0.34948422  0.83385052  0.22963347     0.09400
C519        C  0.34667038  0.78606136  0.24423527    -0.54100
C520        C  0.32386512  0.78489327  0.23470421     0.10000
H521        H  0.38340989  0.80542864  0.18594707     0.14500
H522        H  0.31156924  0.80692412  0.20626703     0.00300
H523        H  0.38757662  0.85193091  0.25121063     0.14800
H524        H  0.34581140  0.77133920  0.25883042     0.14600
O525        O  0.34113355  0.88605682  0.30610316    -0.57900
C526        C  0.34221563  0.85372028  0.23783970     0.74700
O527        O  0.27926444  0.85970726  0.23467124    -0.59100
C528        C  0.32655967  0.89230408  0.32003781     0.74700
C529        C  0.34430881  0.94042813  0.23916320     0.77100
Cd530      Cd  0.32194261  0.88586549  0.26028686     1.37500
O531        O  0.35416550  0.87030281  0.25753042    -0.57900
O532        O  0.35893624  0.93076996  0.24412988    -0.56700
C533        C  0.26620100  0.84438239  0.25511652     0.77100
O534        O  0.31910579  0.92407403  0.24166545    -0.59100
O535        O  0.32264081  0.85394464  0.22670216    -0.57500
O536        O  0.31057167  0.89623595  0.30595232    -0.57500
O537        O  0.27836567  0.84994161  0.27831437    -0.56700
O538        O  0.11953909  0.66187830  0.20243534    -0.57900
C539        C  0.15890289  0.66781749  0.27078351     0.74700
O540        O  0.14829305  0.73057070  0.26939666    -0.59100
C541        C  0.11593828  0.67784293  0.18785167     0.74700
C542        C  0.07024849  0.66328929  0.26962001     0.77100
Cd543      Cd  0.12488213  0.68535340  0.24750561     1.37500
O544        O  0.14297292  0.65571904  0.25063651    -0.57900
O545        O  0.08088692  0.64912849  0.26768445    -0.56700
C546        C  0.16609885  0.74141727  0.25022082     0.77100
O547        O  0.08579727  0.68795473  0.26388439    -0.59100
O548        O  0.15710105  0.68634340  0.28235447    -0.57500
O549        O  0.11578428  0.69651773  0.20119621    -0.57500
O550        O  0.16350920  0.72646385  0.22974930    -0.56700
O551        O  0.11991604  0.43104890  0.30200798    -0.57900
C552        C  0.15288505  0.46344168  0.23490339     0.74700
O553        O  0.14173475  0.39254733  0.23154008    -0.59100
C554        C  0.10884555  0.40937996  0.31605746     0.74700
C555        C  0.06211613  0.38141711  0.23332735     0.77100
Cd556      Cd  0.11634270  0.41006635  0.25619397     1.37500
O557        O  0.13533335  0.45874354  0.25354212    -0.57900
O558        O  0.07371018  0.40578045  0.24073812    -0.56700
C559        C  0.15302304  0.39091173  0.25350298     0.77100
O560        O  0.07655975  0.37106147  0.23395527    -0.59100
O561        O  0.15217165  0.44321139  0.22430202    -0.57500
O562        O  0.10051257  0.38806035  0.30203850    -0.57500
O563        O  0.14535508  0.39596713  0.27624033    -0.56700
O564        O  0.34243533  0.45984907  0.24753406    -0.57900
C565        C  0.31676416  0.40980974  0.18499046     0.74700
O566        O  0.30923945  0.37142756  0.26472388    -0.59100
C567        C  0.33070688  0.46435054  0.26731695     0.74700
C568        C  0.25289243  0.39222408  0.24621460     0.77100
Cd569      Cd  0.30977668  0.41116886  0.24450555     1.37500
O570        O  0.32678655  0.43177599  0.19830196    -0.57900
O571        O  0.26692426  0.40036992  0.22406113    -0.56700
C572        C  0.33464840  0.38279774  0.26670701     0.77100
O573        O  0.26494758  0.39114126  0.26782437    -0.59100
O574        O  0.30439371  0.38856646  0.19957230    -0.57500
O575        O  0.31020748  0.44399793  0.27802972    -0.57500
O576        O  0.34794143  0.40767484  0.26102048    -0.56700
C577        C  0.36555469  0.54119887  0.27244159     0.86400
C578        C  0.36363124  0.54148315  0.30453790    -0.53800
C579        C  0.34104041  0.51972572  0.31587209     0.09300
C580        C  0.32195354  0.49922545  0.29384934     0.20300
C581        C  0.36219576  0.51395594  0.26505713    -0.54600
C582        C  0.33966277  0.49206827  0.27620966     0.09400
C583        C  0.33845498  0.53794544  0.26304879    -0.54100
C584        C  0.31586773  0.51579134  0.27350797     0.10000
H585        H  0.37868565  0.55782488  0.31732069     0.14500
H586        H  0.30348370  0.48152407  0.30283000     0.00300
H587        H  0.37567471  0.51211025  0.25061346     0.14800
H588        H  0.33605673  0.55139537  0.24957613     0.14600
C589        C  0.19970584  0.54047953  0.23067070     0.86400
C590        C  0.20334539  0.53989054  0.19884224    -0.53800
C591        C  0.20449237  0.51836681  0.18942779     0.09300
C592        C  0.20075838  0.49839759  0.21271918     0.20300
C593        C  0.17338510  0.51302152  0.23650168    -0.54600
C594        C  0.17409556  0.49119205  0.22733966     0.09400
C595        C  0.22191057  0.53717400  0.24373743    -0.54100
C596        C  0.22243426  0.51520226  0.23478919     0.10000
H597        H  0.20372822  0.55459467  0.18461210     0.14500
H598        H  0.20134254  0.48068205  0.20513757     0.00300
H599        H  0.15549794  0.51012135  0.24698469     0.14800
H600        H  0.23584471  0.55091960  0.25935911     0.14600
C601        C  0.25830471  0.50474412  0.22677249    -0.20400
C602        C  0.24227607  0.50866620  0.24590030    -0.07000
C603        C  0.24754275  0.50918894  0.27497893     0.13900
C604        C  0.27091375  0.50975975  0.28376762    -0.20400
C605        C  0.28851685  0.50879501  0.26431042    -0.07000
C606        C  0.28123754  0.50452470  0.23566322     0.13900
C607        C  0.29768955  0.49984681  0.21440344    -0.23800
H608        H  0.25378310  0.50337940  0.20462101     0.15200
H609        H  0.27589772  0.51194217  0.30583581     0.15200
C610        C  0.22891211  0.50897312  0.29726984    -0.23700
H611        H  0.28821175  0.49529399  0.19338431     0.05400
H612        H  0.29924381  0.48244825  0.22104450     0.08700
H613        H  0.31827464  0.51792289  0.21225796     0.08700
H614        H  0.20988423  0.50608523  0.28863677     0.08600
H615        H  0.23945422  0.52815130  0.30915356     0.08600
H616        H  0.22310960  0.49199556  0.31195387     0.05400
C617        C  0.21313244  0.38478394  0.27371450    -0.20400
C618        C  0.22460640  0.38625841  0.24731253    -0.07000
C619        C  0.20983007  0.38463848  0.22301961     0.13900
C620        C  0.18544228  0.38409707  0.22595758    -0.20400
C621        C  0.17541835  0.38547226  0.25236531    -0.07000
C622        C  0.18892425  0.38455505  0.27666822     0.21100
C623        C  0.17873542  0.38414289  0.30594091    -0.23800
H624        H  0.22396543  0.38536805  0.29237124     0.15200
H625        H  0.17490453  0.38406302  0.20728410     0.15200
C626        C  0.21957672  0.38396489  0.19382244    -0.23700
H627        H  0.19104456  0.38174022  0.32206086     0.05400
H628        H  0.15758111  0.36695817  0.30827232     0.08700
H629        H  0.17986474  0.40339388  0.31041509     0.08700
H630        H  0.22348849  0.36729033  0.19211103     0.08600
H631        H  0.23824115  0.40346518  0.18877354     0.08600
H632        H  0.20435916  0.38058134  0.17773929     0.05400
C633        C  0.22184795  0.81061056  0.27598765    -0.20400
C634        C  0.23872744  0.82024569  0.25220605    -0.07000
C635        C  0.23043259  0.80478433  0.22738504     0.13900
C636        C  0.20586589  0.78000992  0.22723976    -0.20400
C637        C  0.18951014  0.76964614  0.25136726    -0.07000
C638        C  0.19744768  0.78550079  0.27601942     0.13900
C639        C  0.18114932  0.77589208  0.30278868    -0.23800
H640        H  0.22829428  0.82242483  0.29504597     0.15200
H641        H  0.19997248  0.76811892  0.20824488     0.15200
C642        C  0.24803848  0.81320086  0.20144769    -0.23700
H643        H  0.19060602  0.79094309  0.31984423     0.05400
H644        H  0.17965622  0.75706566  0.31006284     0.08700
H645        H  0.16061750  0.77230652  0.29929061     0.08700
H646        H  0.26784926  0.81557614  0.20643205     0.08600
H647        H  0.25115747  0.83244194  0.19323777     0.08600
H648        H  0.23874178  0.79803166  0.18447889     0.05400
C649        C  0.18109337  0.56468684  0.25933314    -0.20400
C650        C  0.20126174  0.56636664  0.24128533    -0.07000
C651        C  0.22389027  0.59258457  0.23534095     0.13900
C652        C  0.22457434  0.61543746  0.24604185    -0.20400
C653        C  0.20373023  0.61374335  0.26298586    -0.07000
C654        C  0.18192729  0.58749010  0.27030372     0.13900
C655        C  0.15925562  0.58254334  0.29020842    -0.23800
H656        H  0.16458570  0.54548433  0.26614584     0.15200
H657        H  0.24230281  0.63464017  0.24136302     0.15200
C658        C  0.24812057  0.59738041  0.21817605    -0.23700
H659        H  0.14501916  0.56074787  0.29427781     0.05400
H660        H  0.14686800  0.59009181  0.28143322     0.08700
H661        H  0.16727423  0.59182678  0.31086208     0.08700
H662        H  0.24248079  0.59130631  0.19616089     0.08600
H663        H  0.25738088  0.58662936  0.22721846     0.08600
H664        H  0.26432587  0.61901711  0.21749420     0.05400
C665        C  0.25304309  0.72208038  0.23637444    -0.20400
C666        C  0.24921985  0.71686193  0.26529027    -0.07000
C667        C  0.26785665  0.73661403  0.28399733     0.13900
C668        C  0.29121408  0.75952854  0.27324335    -0.20400
C669        C  0.29627057  0.76346505  0.24429059    -0.07000
C670        C  0.27621272  0.74509734  0.22560101     0.13900
C671        C  0.27978470  0.74832021  0.19432399    -0.23800
H672        H  0.23845723  0.70716998  0.22204091     0.15200
H673        H  0.30629248  0.77394788  0.28756254     0.15200
C674        C  0.26426032  0.73303040  0.31523056    -0.23700
H675        H  0.26273390  0.73123629  0.18306094     0.05400
H676        H  0.29850877  0.74902440  0.18809783     0.08700
H677        H  0.28067555  0.76691805  0.18747173     0.08700
H678        H  0.26324001  0.71427028  0.32148603     0.08600
H679        H  0.24551236  0.73224098  0.32184206     0.08600
H680        H  0.28135789  0.74995071  0.32661516     0.05400
C681        C  0.42567471  0.81219026  0.28566738    -0.20400
C682        C  0.44444380  0.81055031  0.26815334    -0.07000
C683        C  0.44084501  0.81094459  0.23868614     0.13900
C684        C  0.41839433  0.81112579  0.22825513    -0.20400
C685        C  0.39872092  0.81123998  0.24564353    -0.07000
C686        C  0.40328441  0.81268187  0.27510826     0.13900
C687        C  0.38533931  0.81480672  0.29675933    -0.23800
H688        H  0.42808671  0.81333968  0.30805721     0.15200
H689        H  0.41716844  0.81152820  0.20585916     0.15200
C690        C  0.45982720  0.81103446  0.21665220    -0.23700
H691        H  0.39753780  0.83357433  0.30902505     0.05400
H692        H  0.37710422  0.79733795  0.31127881     0.08700
H693        H  0.36800615  0.81529340  0.28820350     0.08700
H694        H  0.47792850  0.81172802  0.22467458     0.08600
H695        H  0.46718156  0.82895099  0.20292024     0.08600
H696        H  0.44866384  0.79264741  0.20359065     0.05400
C697        C  0.44157293  0.59368863  0.25657129    -0.20400
C698        C  0.44028404  0.61139256  0.23739324    -0.07000
C699        C  0.41405106  0.60501936  0.22894769     0.13900
C700        C  0.39097442  0.58216966  0.23976399    -0.20400
C701        C  0.39203676  0.56526888  0.26010321    -0.07000
C702        C  0.41822784  0.57100963  0.26794428     0.13900
C703        C  0.42241304  0.55355483  0.28821658    -0.23800
H704        H  0.46082112  0.59755015  0.26369519     0.15200
H705        H  0.37209031  0.57819896  0.23149435     0.15200
C706        C  0.40845329  0.62154843  0.20878999    -0.23700
H707        H  0.44419510  0.56091804  0.29103667     0.05400
H708        H  0.41286454  0.53266861  0.28038946     0.08700
H709        H  0.41436803  0.55357879  0.30925144     0.08700
H710        H  0.39736504  0.60902056  0.19038192     0.08600
H711        H  0.42635097  0.63990939  0.20079680     0.08600
H712        H  0.39560255  0.62792438  0.21937471     0.05400
C713        C  0.51339968  0.73536256  0.24541405    -0.20400
C714        C  0.48835923  0.71222738  0.23871713    -0.07000
C715        C  0.46464435  0.71278080  0.24431275     0.13900
C716        C  0.46606838  0.73347779  0.26037314    -0.20400
C717        C  0.49075013  0.75732588  0.26614333    -0.07000
C718        C  0.51499142  0.75833006  0.25793632     0.13900
C719        C  0.54254336  0.78328560  0.26138626    -0.23800
H720        H  0.53180847  0.73551368  0.24092040     0.15200
H721        H  0.44712508  0.73149419  0.26660381     0.15200
C722        C  0.43758873  0.69329596  0.23149949    -0.23700
H723        H  0.55847806  0.78131319  0.25066529     0.05400
H724        H  0.54800061  0.78673834  0.28381879     0.08700
H725        H  0.54290227  0.80090306  0.25206898     0.08700
H726        H  0.43943661  0.68172612  0.21423946     0.08600
H727        H  0.42906710  0.70461589  0.22190460     0.08600
H728        H  0.42326158  0.67957308  0.24779410     0.05400
C729        C  0.62442697  0.81824893  0.22879909    -0.20400
C730        C  0.62342988  0.82948126  0.25455419    -0.07000
C731        C  0.62440907  0.81707952  0.27963295     0.13900
C732        C  0.62432641  0.79295557  0.27815642    -0.20400
C733        C  0.62289228  0.78046291  0.25241842    -0.07000
C734        C  0.62396699  0.79394419  0.22731434     0.13900
C735        C  0.62344622  0.78255177  0.19879409    -0.23800
H736        H  0.62423349  0.82788079  0.20947190     0.15200
H737        H  0.62407093  0.78310214  0.29749235     0.15200
C738        C  0.62428980  0.82820537  0.30811986    -0.23700
H739        H  0.62485243  0.79612580  0.18166688     0.05400
H740        H  0.60419567  0.76299997  0.19601687     0.08700
H741        H  0.64090681  0.77980338  0.19646999     0.08700
H742        H  0.60527768  0.82814688  0.31123466     0.08600
H743        H  0.64202780  0.84901644  0.31004843     0.08600
H744        H  0.62549286  0.81600221  0.32525461     0.05400
C745        C  0.49357533  0.68674288  0.10963758    -0.20400
C746        C  0.49517176  0.66628593  0.09588101    -0.07000
C747        C  0.49937706  0.64845111  0.11201222     0.13900
C748        C  0.49936732  0.64995721  0.14132822    -0.20400
C749        C  0.49555338  0.66895289  0.15532110    -0.07000
C750        C  0.49352133  0.68822336  0.13917840     0.13900
C751        C  0.48960684  0.70950398  0.15217221    -0.23800
H752        H  0.49063186  0.70062574  0.09732915     0.15200
H753        H  0.50136525  0.63538850  0.15350040     0.15200
C754        C  0.50365249  0.62732691  0.09907630    -0.23700
H755        H  0.50650872  0.72973225  0.14570976     0.05400
H756        H  0.48894845  0.70870169  0.17530362     0.08700
H757        H  0.47026492  0.70693305  0.14484433     0.08700
H758        H  0.50517022  0.62860101  0.07592989     0.08600
H759        H  0.48668497  0.60697984  0.10511354     0.08600
H760        H  0.52286254  0.62991411  0.10688619     0.05400
C761        C  0.57308991  0.67917051  0.36052051    -0.20400
C762        C  0.59667337  0.68462228  0.34626676    -0.07000
C763        C  0.61904541  0.68840282  0.36194764     0.13900
C764        C  0.61762953  0.68807950  0.39132969    -0.20400
C765        C  0.59455920  0.68416013  0.40563803    -0.07000
C766        C  0.57165875  0.67894181  0.38984927     0.13900
C767        C  0.54569929  0.67363749  0.40332361    -0.23800
H768        H  0.55580291  0.67593769  0.34859513     0.15200
H769        H  0.63499659  0.69145534  0.40319638     0.15200
C770        C  0.64439025  0.69250362  0.34811626    -0.23700
H771        H  0.53007418  0.66976791  0.38755372     0.05400
H772        H  0.54952473  0.69141529  0.41571518     0.08700
H773        H  0.53719052  0.65555481  0.41699183     0.08700
H774        H  0.65484186  0.71186482  0.33647137     0.08600
H775        H  0.63916875  0.67558498  0.33359505     0.08600
H776        H  0.65891828  0.69324645  0.36367736     0.05400
C777        C  0.62074847  0.91381211  0.11552764    -0.20400
C778        C  0.59632289  0.89614960  0.10181880    -0.07000
C779        C  0.57254073  0.88059375  0.11817432     0.13900
C780        C  0.57419811  0.88235860  0.14744900    -0.20400
C781        C  0.59888289  0.89880599  0.16117348    -0.07000
C782        C  0.62244178  0.91530141  0.14487726     0.13900
C783        C  0.64950684  0.93444996  0.15793340    -0.23800
H784        H  0.63893278  0.92612413  0.10320073     0.15200
H785        H  0.55603694  0.86987435  0.15974786     0.15200
C786        C  0.54534973  0.86136635  0.10537608    -0.23700
H787        H  0.66517697  0.94668034  0.14190244     0.05400
H788        H  0.65671392  0.92302502  0.16974022     0.08700
H789        H  0.64774949  0.94857064  0.17213307     0.08700
H790        H  0.54628610  0.84554485  0.09337362     0.08600
H791        H  0.53928103  0.87252390  0.09145343     0.08600
H792        H  0.52922328  0.85100503  0.12151944     0.05400
C793        C  0.63184570  0.79421123  0.48454888    -0.20400
C794        C  0.62236524  0.77805415  0.00315092    -0.07000
C795        C  0.62206482  0.78959636  0.02918475     0.13900
C796        C  0.62305696  0.81419709  0.02950837    -0.20400
C797        C  0.62372929  0.82749500  0.00463974    -0.07000
C798        C  0.63142161  0.81810792  0.48424484     0.13900
C799        C  0.63827113  0.83380469  0.45724646    -0.23800
H800        H  0.63683718  0.78770679  0.46539489     0.15200
H801        H  0.62181663  0.82235107  0.04948066     0.15200
C802        C  0.61933813  0.77574066  0.05674656    -0.23700
H803        H  0.64460596  0.82489873  0.44056473     0.05400
H804        H  0.65525641  0.85478317  0.46066152     0.08700
H805        H  0.62028927  0.83381487  0.44946655     0.08700
H806        H  0.63644871  0.77251834  0.05930563     0.08600
H807        H  0.59981507  0.75615859  0.05758205     0.08600
H808        H  0.61963633  0.78789043  0.07483787     0.05400
C809        C  0.47738573  0.77773665  0.36526805    -0.20400
C810        C  0.49561172  0.80174496  0.35120086    -0.07000
C811        C  0.51483421  0.82426334  0.36702284     0.13900
C812        C  0.51400352  0.82267959  0.39642915    -0.20400
C813        C  0.49425087  0.79941960  0.41037011    -0.07000
C814        C  0.47646929  0.77632687  0.39467618     0.13900
C815        C  0.45598763  0.75047814  0.40901580    -0.23800
H816        H  0.46280129  0.76045780  0.35318937     0.15200
H817        H  0.52766512  0.84037596  0.40857281     0.15200
C818        C  0.53540277  0.85079745  0.35395727    -0.23700
H819        H  0.44411164  0.73414348  0.39370798     0.05400
H820        H  0.44162834  0.75358698  0.42144721     0.08700
H821        H  0.46651270  0.74380794  0.42314677     0.08700
H822        H  0.53219747  0.86686174  0.36183360     0.08600
H823        H  0.53426935  0.85067980  0.33093641     0.08600
H824        H  0.55606029  0.85585974  0.35972736     0.05400
C825        C  0.51146656  0.75886828  0.00088654    -0.20400
C826        C  0.48692436  0.75345527  0.49167632    -0.07000
C827        C  0.46296596  0.72797513  0.49562399     0.13900
C828        C  0.46440975  0.70715469  0.50824819    -0.20400
C829        C  0.48884057  0.71153811  0.01588147    -0.07000
C830        C  0.51306119  0.73666390  0.01029486     0.13900
C831        C  0.54072425  0.74059111  0.01330661    -0.23800
H832        H  0.52993465  0.77822519  0.99787553     0.15200
H833        H  0.44551329  0.68873469  0.51309014     0.15200
C834        C  0.43557866  0.72083989  0.48478515    -0.23700
H835        H  0.55672286  0.76010490  0.00418707     0.05400
H836        H  0.54169666  0.72440234  0.00215706     0.08700
H837        H  0.54565336  0.74110090  0.03574705     0.08700
H838        H  0.42683403  0.70205416  0.47226150     0.08600
H839        H  0.43646982  0.73620850  0.47049440     0.08600
H840        H  0.42172962  0.71738312  0.50261110     0.05400
C841        C  0.23192857  0.66878267  0.39293200    -0.20400
C842        C  0.21097966  0.66890082  0.40766220    -0.07000
C843        C  0.19116564  0.67072256  0.39238526     0.13900
C844        C  0.19208071  0.67095321  0.36283516    -0.20400
C845        C  0.21198488  0.66888447  0.34819928    -0.07000
C846        C  0.23285325  0.66891292  0.36357138     0.13900
C847        C  0.25641885  0.66893479  0.34995287    -0.23800
H848        H  0.24734842  0.66769373  0.40452884     0.15200
H849        H  0.17618701  0.67103624  0.35110778     0.15200
C850        C  0.16800131  0.67054607  0.40696663    -0.23700
H851        H  0.27564527  0.68637980  0.35774835     0.05400
H852        H  0.25682672  0.67070822  0.32685457     0.08700
H853        H  0.25575676  0.65009693  0.35548487     0.08700
H854        H  0.17577887  0.68876323  0.42014873     0.08600
H855        H  0.15670305  0.65222575  0.42020815     0.08600
H856        H  0.15358959  0.67058623  0.39179642     0.05400
C857        C  0.33527555  0.81950347  0.14681501    -0.20400
C858        C  0.33995924  0.80102602  0.16054461    -0.07000
C859        C  0.34089159  0.78101533  0.14450354     0.13900
C860        C  0.33977541  0.78173754  0.11527373    -0.20400
C861        C  0.33767488  0.80173126  0.10134457    -0.07000
C862        C  0.33435513  0.82026294  0.11733102     0.13900
C863        C  0.33180587  0.84201371  0.10349122    -0.23800
H864        H  0.33424692  0.83460643  0.15908624     0.15200
H865        H  0.34200262  0.76728288  0.10308633     0.15200
C866        C  0.34351000  0.75876505  0.15717525    -0.23700
H867        H  0.33047900  0.85540917  0.11912603     0.05400
H868        H  0.31316793  0.83281881  0.09072213     0.08700
H869        H  0.34971734  0.85461090  0.08991851     0.08700
H870        H  0.34273271  0.75834666  0.18034208     0.08600
H871        H  0.36290984  0.76099102  0.15032017     0.08600
H872        H  0.32656777  0.73898641  0.14987563     0.05400
C873        C  0.41933375  0.81691107  0.03542842    -0.20400
C874        C  0.39994206  0.81683000  0.01769358    -0.07000
C875        C  0.40414634  0.81385919  0.48639915     0.13900
C876        C  0.42623858  0.81259744  0.47604808    -0.20400
C877        C  0.44446712  0.81051363  0.49371379    -0.07000
C878        C  0.44163680  0.81608707  0.02524235     0.13900
C879        C  0.46031624  0.81618029  0.04732519    -0.23800
H880        H  0.41771442  0.81751776  0.05779627     0.15200
H881        H  0.42890518  0.81351506  0.45372685     0.15200
C882        C  0.38651247  0.81671903  0.46510179    -0.23700
H883        H  0.46816622  0.83454348  0.06038857     0.05400
H884        H  0.47806197  0.81604612  0.03921948     0.08700
H885        H  0.44880076  0.79822981  0.06104129     0.08700
H886        H  0.38741244  0.83600757  0.46795339     0.08600
H887        H  0.36528098  0.79978023  0.46627900     0.08600
H888        H  0.39338741  0.81693660  0.44328904     0.05400
C889        C  0.29362872  0.75640239  0.48612606    -0.20400
C890        C  0.29783838  0.76112102  0.01569655    -0.07000
C891        C  0.27867849  0.74063048  0.03366003     0.13900
C892        C  0.25620989  0.71756288  0.02210446    -0.20400
C893        C  0.25188021  0.71298716  0.49244254    -0.07000
C894        C  0.27119350  0.73334646  0.47447802     0.13900
C895        C  0.26926560  0.73012742  0.44311970    -0.23800
H896        H  0.30892697  0.77161372  0.47235803     0.15200
H897        H  0.24192095  0.70157540  0.03591338     0.15200
C898        C  0.28273753  0.74203695  0.06487944    -0.23700
H899        H  0.28682164  0.74734971  0.43233632     0.05400
H900        H  0.25071971  0.72907706  0.43554634     0.08700
H901        H  0.26879592  0.71147879  0.43713720     0.08700
H902        H  0.28244491  0.75950151  0.07363017     0.08600
H903        H  0.30238186  0.74396548  0.06959756     0.08600
H904        H  0.26655412  0.72365858  0.07561903     0.05400
C905        C  0.34306407  0.88525716  0.36508576    -0.20400
C906        C  0.32773846  0.89398842  0.35111692    -0.07000
C907        C  0.31338024  0.90303386  0.36720122     0.13900
C908        C  0.31428193  0.90238697  0.39649681    -0.20400
C909        C  0.32880749  0.89274513  0.41046085    -0.07000
C910        C  0.34373775  0.88436818  0.39441705     0.13900
C911        C  0.35991273  0.87378878  0.40768262    -0.23800
H912        H  0.35416649  0.87839268  0.35296544     0.15200
H913        H  0.30302409  0.90907492  0.40861871     0.15200
C914        C  0.29684275  0.91327064  0.35405956    -0.23700
H915        H  0.36996614  0.86796282  0.39176784     0.05400
H916        H  0.34639754  0.85559608  0.42040904     0.08700
H917        H  0.37600620  0.88957209  0.42104653     0.08700
H918        H  0.27982912  0.89690548  0.34207166     0.08600
H919        H  0.30985922  0.93059600  0.34006435     0.08600
H920        H  0.28789145  0.92028852  0.37001685     0.05400
C921        C  0.10965422  0.65497746  0.11159827    -0.20400
C922        C  0.11183668  0.67717158  0.09745815    -0.07000
C923        C  0.11361518  0.69860135  0.11333250     0.13900
C924        C  0.11409807  0.69756475  0.14262529    -0.20400
C925        C  0.11301639  0.67590007  0.15682689    -0.07000
C926        C  0.11016510  0.65396878  0.14098068     0.13900
C927        C  0.10766551  0.62940991  0.15454774    -0.23800
H928        H  0.10795036  0.63839490  0.09953679     0.15200
H929        H  0.11608066  0.71434851  0.15451515     0.15200
C930        C  0.11603264  0.72321559  0.09989019    -0.23700
H931        H  0.10446125  0.61392926  0.13886308     0.05400
H932        H  0.09009206  0.62010214  0.16915879     0.08700
H933        H  0.12648453  0.63505679  0.16601870     0.08700
H934        H  0.09768561  0.71733802  0.08739816     0.08600
H935        H  0.13433187  0.73340565  0.08628643     0.08600
H936        H  0.11792951  0.73810904  0.11568402     0.05400
C937        C  0.21896015  0.80829207  0.97929455    -0.20400
C938        C  0.23174916  0.81990855  0.00482474    -0.07000
C939        C  0.21870630  0.80679914  0.03017666     0.13900
C940        C  0.19437818  0.78176579  0.02910023    -0.20400
C941        C  0.18284701  0.76906307  0.00350694    -0.07000
C942        C  0.19488540  0.78302688  0.97821153     0.13900
C943        C  0.18353357  0.77110786  0.94989844    -0.23800
H944        H  0.22859290  0.81844669  0.95982517     0.15200
H945        H  0.18498362  0.77140951  0.04856373     0.15200
C946        C  0.23073992  0.81807346  0.05848055    -0.23700
H947        H  0.19570730  0.78497368  0.93255269     0.05400
H948        H  0.16263218  0.76699978  0.94810456     0.08700
H949        H  0.18346134  0.75469403  0.44862066     0.08700
H950        H  0.23320433  0.83815903  0.06120873     0.08600
H951        H  0.25351322  0.81988236  0.56201287     0.08600
H952        H  0.21763248  0.80498664  0.07585558     0.05400
C953        C  0.33594119  0.49547427  0.36068689    -0.20400
C954        C  0.33609385  0.51672917  0.34670820    -0.07000
C955        C  0.33398914  0.53607869  0.36258971     0.13900
C956        C  0.33385317  0.53482783  0.39200762    -0.20400
C957        C  0.33527665  0.51447007  0.40608437    -0.07000
C958        C  0.33566300  0.49415970  0.39020098     0.13900
C959        C  0.33738335  0.47198851  0.40423273    -0.23800
H960        H  0.33739011  0.48058286  0.34847075     0.15200
H961        H  0.33341898  0.55031636  0.40416265     0.15200
C962        C  0.33162416  0.55795078  0.34862844    -0.23700
H963        H  0.33865268  0.45847203  0.38871745     0.05400
H964        H  0.31908970  0.45956778  0.41732412     0.08700
H965        H  0.35567186  0.48075591  0.41757472     0.08700
H966        H  0.31404748  0.54878903  0.33428977     0.08600
H967        H  0.35024939  0.57169387  0.33657285     0.08600
H968        H  0.32855894  0.57031638  0.36418036     0.05400
C969        C  0.39009992  0.58222178  0.01048919    -0.20400
C970        C  0.39138870  0.56252998  0.49158723    -0.07000
C971        C  0.41740959  0.56729932  0.48411091     0.13900
C972        C  0.44049409  0.59124802  0.99581317    -0.20400
C973        C  0.43947635  0.61007802  0.01361084    -0.07000
C974        C  0.41336718  0.60488895  0.02121874     0.13900
C975        C  0.40899727  0.62294201  0.04068425    -0.23800
H976        H  0.37130124  0.58017443  0.01638369     0.15200
H977        H  0.45966116  0.59411083  0.98957307     0.15200
C978        C  0.42121307  0.54953534  0.46380473    -0.23700
H979        H  0.38721605  0.61563470  0.04369791     0.05400
H980        H  0.41830587  0.64358078  0.03222596     0.08700
H981        H  0.41688609  0.62346867  0.06183464     0.08700
H982        H  0.41277874  0.54935204  0.44303969     0.08600
H983        H  0.41179428  0.52873926  0.47191888     0.08600
H984        H  0.44293360  0.55682189  0.46029587     0.05400
C985        C  0.22765960  0.53339184  0.11375475    -0.20400
C986        C  0.20478777  0.51310202  0.09980757    -0.07000
C987        C  0.18351492  0.49214568  0.11567902     0.13900
C988        C  0.18491349  0.49303762  0.14518096    -0.20400
C989        C  0.20700528  0.51444696  0.15903837    -0.07000
C990        C  0.22922174  0.53411785  0.14306137     0.13900
C991        C  0.25473220  0.55636860  0.15629474    -0.23800
H992        H  0.24410985  0.54940401  0.10167131     0.15200
H993        H  0.16792980  0.47794459  0.15747637     0.15200
C994        C  0.15857238  0.46989592  0.10171504    -0.23700
H995        H  0.27235655  0.55573797  0.14812264     0.05400
H996        H  0.25469899  0.55456453  0.17940944     0.08700
H997        H  0.25741742  0.57616047  0.15091747     0.08700
H998        H  0.16410563  0.45816503  0.08793569     0.08600
H999        H  0.14890825  0.47852937  0.08906250     0.08600
H1000       H  0.14347913  0.45577230  0.11726527     0.05400
C1001       C  0.20027854  0.58463509  0.03255952    -0.20400
C1002       C  0.19986116  0.56489748  0.01509670    -0.07000
C1003       C  0.20300606  0.56935007  0.48743627     0.13900
C1004       C  0.20382847  0.59214449  0.47649516    -0.20400
C1005       C  0.20339345  0.61169805  0.49351689    -0.07000
C1006       C  0.20181291  0.60796283  0.02211019     0.13900
C1007       C  0.20209848  0.62739330  0.04351484    -0.23800
H1008       H  0.19914855  0.58224040  0.05488428     0.15200
H1009       H  0.20437176  0.59376365  0.45406629     0.15200
C1010       C  0.20228069  0.54987190  0.46590340    -0.23700
H1011       H  0.20007983  0.61981951  0.06527467     0.05400
H1012       H  0.18496483  0.63036823  0.04044549     0.08700
H1013       H  0.22139760  0.64700037  0.04288126     0.08700
H1014       H  0.18484712  0.54351098  0.45173633     0.08600
H1015       H  0.21447900  0.54548318  0.96491789     0.08600
H1016       H  0.22118955  0.56010621  0.45320977     0.05400
C1017       C  0.24825589  0.51000506  0.48631735    -0.20400
C1018       C  0.24353774  0.50937304  0.01450733    -0.07000
C1019       C  0.26177800  0.50739557  0.03227230     0.13900
C1020       C  0.28314322  0.50582938  0.02040400    -0.20400
C1021       C  0.28793314  0.50636477  0.49070871    -0.07000
C1022       C  0.26979587  0.50917571  0.47370437     0.13900
C1023       C  0.27430205  0.51336056  0.44256849    -0.23800
H1024       H  0.23496139  0.51324968  0.47331343     0.15200
H1025       H  0.29784556  0.50552361  0.03405566     0.15200
C1026       C  0.26032678  0.50930072  0.06363414    -0.23700
H1027       H  0.25853560  0.51581185  0.43244036     0.05400
H1028       H  0.27374033  0.49574375  0.43293344     0.08700
H1029       H  0.29426278  0.53179207  0.43829434     0.08700
H1030       H  0.24116875  0.49201178  0.07185047     0.08600
H1031       H  0.26162947  0.52842348  0.06922785     0.08600
H1032       H  0.27720850  0.50906147  0.07417815     0.05400
C1033       C  0.32477865  0.43281480  0.13928907    -0.20400
C1034       C  0.31848326  0.40933557  0.15397647    -0.07000
C1035       C  0.31293189  0.38613095  0.13866630     0.13900
C1036       C  0.31333296  0.38703167  0.10928508    -0.20400
C1037       C  0.31906099  0.41035756  0.09468456    -0.07000
C1038       C  0.32494567  0.43363613  0.10996412     0.13900
C1039       C  0.33025733  0.45912346  0.09580326    -0.23800
H1040       H  0.32884184  0.45055890  0.15084490     0.15200
H1041       H  0.30888108  0.36922571  0.09759127     0.15200
C1042       C  0.30673331  0.36036318  0.15282383    -0.23700
H1043       H  0.33309654  0.47469408  0.11118714     0.05400
H1044       H  0.31283078  0.45471118  0.08239930     0.08700
H1045       H  0.34900048  0.46785227  0.08293477     0.08700
H1046       H  0.28744861  0.35158808  0.16475853     0.08600
H1047       H  0.32348634  0.36441267  0.16709946     0.08600
H1048       H  0.30440582  0.34497556  0.13745391     0.05400
C1049       C  0.11842711  0.43446160  0.36083195    -0.20400
C1050       C  0.10684474  0.40945558  0.34719803    -0.07000
C1051       C  0.09488989  0.38566268  0.36370184     0.13900
C1052       C  0.09628593  0.38775674  0.39301626    -0.20400
C1053       C  0.10918772  0.41284014  0.40662039    -0.07000
C1054       C  0.11972174  0.43654223  0.39015638     0.13900
C1055       C  0.13251292  0.46421070  0.40296404    -0.23800
H1056       H  0.12715541  0.45274480  0.34844085     0.15200
H1057       H  0.08770325  0.36947983  0.40539994     0.15200
C1058       C  0.08078653  0.35789212  0.35096162    -0.23700
H1059       H  0.13855738  0.48012849  0.38683450     0.05400
H1060       H  0.15106188  0.46901471  0.41449894     0.08700
H1061       H  0.11787585  0.46509051  0.41734264     0.08700
H1062       H  0.09541459  0.35513416  0.33857469     0.08600
H1063       H  0.06400129  0.35504311  0.33741120     0.08600
H1064       H  0.07190895  0.34181285  0.36717927     0.05400
C1065       C  0.21219068  0.38048574  0.47889134    -0.20400
C1066       C  0.22501169  0.38238895  0.00186199    -0.07000
C1067       C  0.20985044  0.37995739  0.02637317     0.13900
C1068       C  0.18617987  0.38080943  0.02398254    -0.20400
C1069       C  0.17734393  0.38439563  0.99795803    -0.07000
C1070       C  0.18850077  0.38123639  0.47641000     0.13900
C1071       C  0.17648017  0.37811110  0.44770484    -0.23800
H1072       H  0.22174333  0.37879239  0.46007766     0.15200
H1073       H  0.17543473  0.38030763  0.04285014     0.15200
C1074       C  0.21857383  0.37725175  0.05526608    -0.23700
H1075       H  0.18684978  0.37268562  0.43176450     0.05400
H1076       H  0.17859270  0.39728671  0.44079168     0.08700
H1077       H  0.15479330  0.36183290  0.44810196     0.08700
H1078       H  0.23763298  0.39599658  0.06106064     0.08600
H1079       H  0.22140577  0.35983420  0.05587011     0.08600
H1080       H  0.20323786  0.37378126  0.07147213     0.05400
C1081       C  0.99752561  0.64561523  0.48528048    -0.20400
C1082       C  0.98265435  0.61741224  0.48275602    -0.07000
C1083       C  0.99685166  0.60432848  0.47612720     0.13900
C1084       C  0.02533490  0.61931488  0.47533941    -0.20400
C1085       C  0.04030779  0.64713400  0.48076154    -0.07000
C1086       C  0.02600827  0.66064904  0.48435979     0.13900
C1087       C  0.04028577  0.69070591  0.48846146    -0.23800
H1088       H  0.98686290  0.65594149  0.48955713     0.15200
H1089       H  0.03599954  0.60889680  0.47162859     0.15200
C1090       C  0.98237986  0.57459130  0.46998232    -0.23700
H1091       H  0.02581690  0.69769864  0.49009824     0.05400
H1092       H  0.05384045  0.70123114  0.47031152     0.08700
H1093       H  0.05072460  0.69622648  0.99904156     0.08700
H1094       H  0.96745396  0.56951804  0.45302478     0.08600
H1095       H  0.97004579  0.56207279  0.99809317     0.08600
H1096       H  0.99661560  0.56839669  0.46293297     0.05400
C1097       C  0.64237039  0.61411180  0.02977206    -0.20400
C1098       C  0.67041639  0.62833651  0.02471019    -0.07000
C1099       C  0.68406273  0.65668382  0.02101402     0.13900
C1100       C  0.66900817  0.66934846  0.02019896    -0.20400
C1101       C  0.64061256  0.65466905  0.02266494    -0.07000
C1102       C  0.62729110  0.62669506  0.02868957     0.13900
C1103       C  0.59709574  0.60945814  0.03306692    -0.23800
H1104       H  0.63181067  0.59255503  0.03325209     0.15200
H1105       H  0.67951205  0.69082148  0.01620136     0.15200
C1106       C  0.71426759  0.67379816  0.01667148    -0.23700
H1107       H  0.59052751  0.58837632  0.03861266     0.05400
H1108       H  0.58592579  0.60670355  0.51320844     0.08700
H1109       H  0.59083088  0.61769792  0.05048908     0.08700
H1110       H  0.71767685  0.66454358  0.49013659     0.08600
H1111       H  0.72476607  0.67151114  0.03483136     0.08600
H1112       H  0.72136670  0.69551594  0.01473081     0.05400
C1113       C  0.82681447  0.60208450  0.03099021    -0.20400
C1114       C  0.83873502  0.60094105  0.00568605    -0.07000
C1115       C  0.83063899  0.60590817  0.47962495     0.13900
C1116       C  0.80700220  0.60701796  0.47931875    -0.20400
C1117       C  0.79076996  0.60284415  0.00595295    -0.07000
C1118       C  0.80303446  0.60289464  0.03155487     0.13900
C1119       C  0.79096237  0.60282034  0.05964597    -0.23800
H1120       H  0.83551114  0.60112706  0.05065296     0.15200
H1121       H  0.79951436  0.60936855  0.45945388     0.15200
C1122       C  0.84477357  0.60841148  0.45217909    -0.23700
H1123       H  0.80385655  0.60372906  0.07723306     0.05400
H1124       H  0.77091602  0.58403566  0.06227368     0.08700
H1125       H  0.78887686  0.62065313  0.06135050     0.08700
H1126       H  0.84414454  0.58941773  0.44757439     0.08600
H1127       H  0.86607572  0.62548406  0.45315604     0.08600
H1128       H  0.83499006  0.61230906  0.43442478     0.05400
C1129       C  0.74550899  0.48297414  0.02956516    -0.20400
C1130       C  0.72667774  0.48178542  0.01051728    -0.07000
C1131       C  0.73556169  0.48691102  0.48622050     0.13900
C1132       C  0.75783038  0.48549743  0.47689135    -0.20400
C1133       C  0.77321766  0.48063340  0.49572259    -0.07000
C1134       C  0.76818499  0.48230578  0.02022096     0.13900
C1135       C  0.78837459  0.48435794  0.04138254    -0.23800
H1136       H  0.74170594  0.48293872  0.05182175     0.15200
H1137       H  0.76222783  0.48657269  0.45466144     0.15200
C1138       C  0.71957126  0.49225125  0.46525157    -0.23700
H1139       H  0.78339964  0.48796652  0.06281275     0.05400
H1140       H  0.80886439  0.50145341  0.03577826     0.08700
H1141       H  0.78870922  0.46554362  0.04210302     0.08700
H1142       H  0.71899929  0.51024652  0.47176479     0.08600
H1143       H  0.69861058  0.47474713  0.46367070     0.08600
H1144       H  0.72881032  0.49617379  0.44400428     0.05400
C1145       C  0.57619720  0.40004849  0.50764223    -0.20400
C1146       C  0.57739259  0.38017965  0.49183109    -0.07000
C1147       C  0.60165435  0.38126738  0.98680690     0.13900
C1148       C  0.62443233  0.40345829  0.99888708    -0.20400
C1149       C  0.62353852  0.42443789  0.01259474    -0.07000
C1150       C  0.59924563  0.42217870  0.51972488     0.13900
C1151       C  0.59424164  0.44054474  0.53768228    -0.23800
H1152       H  0.55724868  0.39873453  0.51137780     0.15200
H1153       H  0.64290329  0.40341657  0.99796273     0.15200
C1154       C  0.60648457  0.36186863  0.97033609    -0.23700
H1155       H  0.57907970  0.42843540  0.55417006     0.05400
H1156       H  0.58609698  0.45034904  0.52450256     0.08700
H1157       H  0.61044393  0.45516182  0.04534291     0.08700
H1158       H  0.59699482  0.34379165  0.47886311     0.08600
H1159       H  0.62807919  0.36786546  0.97046948     0.08600
H1160       H  0.60135070  0.36177509  0.94808796     0.05400
C1161       C  0.51889017  0.23621824  0.48584146    -0.20400
C1162       C  0.51998736  0.23255779  0.01630650    -0.07000
C1163       C  0.52062888  0.25224104  0.03407173     0.13900
C1164       C  0.51981095  0.27386706  0.02223188    -0.20400
C1165       C  0.52130140  0.27887229  0.49287424    -0.07000
C1166       C  0.51808725  0.25815095  0.47472405     0.13900
C1167       C  0.51541206  0.25951099  0.44352049    -0.23800
H1168       H  0.51725254  0.22072960  0.47191678     0.15200
H1169       H  0.52135582  0.28952738  0.03581279     0.15200
C1170       C  0.52416439  0.25167199  0.06524336    -0.23700
H1171       H  0.51539085  0.24267611  0.43257026     0.05400
H1172       H  0.53262597  0.27854017  0.43516412     0.08700
H1173       H  0.49607086  0.25800665  0.43847074     0.08700
H1174       H  0.54303953  0.25188946  0.06962591     0.08600
H1175       H  0.50664117  0.23334899  0.07451781     0.08600
H1176       H  0.52560415  0.26938069  0.07576476     0.05400
C1177       C  0.34864536  0.00724393  0.52556873    -0.20400
C1178       C  0.37807228  0.02442070  0.02673881    -0.07000
C1179       C  0.39205042  0.01097307  0.03245358     0.13900
C1180       C  0.37766943  0.98268777  0.03312615    -0.20400
C1181       C  0.34975247  0.96715949  0.02783897    -0.07000
C1182       C  0.33516504  0.97899767  0.52507642     0.13900
C1183       C  0.30506854  0.96334277  0.52000753    -0.23800
H1184       H  0.33713405  0.01675332  0.52182342     0.15200
H1185       H  0.38872768  0.97262783  0.03635617     0.15200
C1186       C  0.42220284  0.02590451  0.03704534    -0.23700
H1187       H  0.29672816  0.97667640  0.51906393     0.05400
H1188       H  0.29471767  0.95164078  0.03792723     0.08700
H1189       H  0.30055558  0.95260977  0.49968685     0.08700
H1190       H  0.42775561  0.04052773  0.05441996     0.08600
H1191       H  0.43310185  0.03651349  0.01756650     0.08600
H1192       H  0.42920969  0.01207661  0.04275866     0.05400
C1193       C  0.34833030  0.32186134  0.48112683    -0.20400
C1194       C  0.37651809  0.33681035  0.47697960    -0.07000
C1195       C  0.38760302  0.36118726  0.96747411     0.13900
C1196       C  0.37274099  0.37403676  0.96770495    -0.20400
C1197       C  0.34615442  0.36240313  0.47724432    -0.07000
C1198       C  0.33301512  0.33419896  0.48156938     0.13900
C1199       C  0.30323139  0.31699310  0.48830307    -0.23800
H1200       H  0.33834892  0.30057540  0.48596813     0.15200
H1201       H  0.38289439  0.39523062  0.96234595     0.15200
C1202       C  0.41687772  0.37719433  0.95840885    -0.23700
H1203       H  0.29653411  0.29541639  0.49075754     0.05400
H1204       H  0.29129716  0.31843326  0.47106297     0.08700
H1205       H  0.29990242  0.32494110  0.01095386     0.08700
H1206       H  0.42363107  0.37176347  0.44516397     0.08600
H1207       H  0.43025425  0.38049178  0.97640756     0.08600
H1208       H  0.42263651  0.39736450  0.95022885     0.05400
C1209       C  0.38439654  0.17368526  0.48585155    -0.20400
C1210       C  0.38715948  0.16106803  0.00311191    -0.07000
C1211       C  0.38575814  0.17282898  0.02850679     0.13900
C1212       C  0.38544551  0.19675624  0.02755263    -0.20400
C1213       C  0.38662991  0.20934986  0.00196297    -0.07000
C1214       C  0.38568931  0.19839414  0.48470108     0.13900
C1215       C  0.38239117  0.20822111  0.45668579    -0.23800
H1216       H  0.38155989  0.16275503  0.46653673     0.15200
H1217       H  0.38619800  0.20663084  0.04706495     0.15200
C1218       C  0.38622377  0.16142401  0.05668207    -0.23700
H1219       H  0.37774396  0.19328854  0.43982502     0.05400
H1220       H  0.40104610  0.22460949  0.94315540     0.08700
H1221       H  0.36540474  0.21181132  0.45774257     0.08700
H1222       H  0.40556675  0.16210733  0.05935853     0.08600
H1223       H  0.37552109  0.14647456  0.56755608     0.08600
H1224       H  0.38445624  0.17302265  0.07415474     0.05400
C1225       C  0.99097788  0.32419520  0.02262912    -0.20400
C1226       C  0.97846194  0.33899616  0.02743990    -0.07000
C1227       C  0.99494141  0.36666253  0.03441649     0.13900
C1228       C  0.02322842  0.37902387  0.03374440    -0.20400
C1229       C  0.03572670  0.36482654  0.02585696    -0.07000
C1230       C  0.01924839  0.33666101  0.02139769     0.13900
C1231       C  0.03089399  0.31962270  0.01372480    -0.23800
H1232       H  0.97857143  0.30290067  0.01794549     0.15200
H1233       H  0.03569667  0.40042069  0.03791475     0.15200
C1234       C  0.98327671  0.38380111  0.04153576    -0.23700
H1235       H  0.01491042  0.29804771  0.01133073     0.05400
H1236       H  0.04475055  0.32093430  0.03043183     0.08700
H1237       H  0.04205436  0.32456381  0.51149133     0.08700
H1238       H  0.96882132  0.37466414  0.05932981     0.08600
H1239       H  0.97319656  0.38734644  0.50532918     0.08600
H1240       H  0.99920691  0.40449251  0.04781437     0.05400
C1241       C  0.63112259  0.00742864  0.48072387    -0.20400
C1242       C  0.65943932  0.02415786  0.47906292    -0.07000
C1243       C  0.67945446  0.01411561  0.98545016     0.13900
C1244       C  0.66651143  0.98586618  0.98577951    -0.20400
C1245       C  0.63876031  0.96909934  0.98011861    -0.07000
C1246       C  0.61810016  0.97919950  0.48118297     0.13900
C1247       C  0.58773849  0.96297712  0.48469041    -0.23800
H1248       H  0.61900865  0.01649410  0.48317216     0.15200
H1249       H  0.67792415  0.97685018  0.99215287     0.15200
C1250       C  0.70888355  0.03052577  0.99350165    -0.23700
H1251       H  0.57899638  0.97597421  0.48534741     0.05400
H1252       H  0.58198872  0.95371360  0.98005969     0.08700
H1253       H  0.57842925  0.94899935  0.46675553     0.08700
H1254       H  0.71126245  0.04204855  0.01291336     0.08600
H1255       H  0.70999314  0.04185781  0.45203280     0.08600
H1256       H  0.71738013  0.01764716  0.99762190     0.05400
C1257       C  0.81539434  0.21224048  0.03072263    -0.20400
C1258       C  0.83082880  0.21871344  0.00604907    -0.07000
C1259       C  0.82273859  0.19883765  0.48364909     0.13900
C1260       C  0.79702087  0.17528623  0.48561661    -0.20400
C1261       C  0.77869885  0.17151311  0.00936634    -0.07000
C1262       C  0.78944479  0.18910671  0.03269969     0.13900
C1263       C  0.77347388  0.18474577  0.05932774    -0.23800
H1264       H  0.82295735  0.22629887  0.04805256     0.15200
H1265       H  0.78879556  0.16235148  0.46746302     0.15200
C1266       C  0.83863956  0.20437227  0.45676970    -0.23700
H1267       H  0.78512710  0.20081456  0.07497058     0.05400
H1268       H  0.77299770  0.15903599  0.56957151     0.08700
H1269       H  0.75481331  0.18488867  0.05471011     0.08700
H1270       H  0.85910989  0.20823609  0.46140691     0.08600
H1271       H  0.84043073  0.22210951  0.94551483     0.08600
H1272       H  0.82868891  0.18699181  0.44221196     0.05400
C1273       C  0.83493987  0.39378343  0.49319690    -0.20400
C1274       C  0.81541594  0.37638504  0.01107976    -0.07000
C1275       C  0.79278257  0.37916947  0.01644294     0.13900
C1276       C  0.79201772  0.40085118  0.00475105    -0.20400
C1277       C  0.81316360  0.42012293  0.48999459    -0.07000
C1278       C  0.83432934  0.41581631  0.48204660     0.13900
C1279       C  0.85637466  0.43370778  0.46123792    -0.23800
H1280       H  0.85122842  0.39137344  0.48640843     0.15200
H1281       H  0.77416166  0.40147381  0.00884721     0.15200
C1282       C  0.76885797  0.35971219  0.03459227    -0.23700
H1283       H  0.87057719  0.42667194  0.45733566     0.05400
H1284       H  0.86883571  0.45460284  0.46892016     0.08700
H1285       H  0.84759934  0.43355394  0.44068479     0.08700
H1286       H  0.77521330  0.36022544  0.05644014     0.08600
H1287       H  0.75870443  0.33894596  0.02636665     0.08600
H1288       H  0.75307468  0.36503129  0.03554888     0.05400
C1289       C  0.62361047  0.21031655  0.00871307    -0.20400
C1290       C  0.62051584  0.18578135  0.49157883    -0.07000
C1291       C  0.59380894  0.16516061  0.48406278     0.13900
C1292       C  0.57131620  0.16548131  0.49483749    -0.20400
C1293       C  0.57462392  0.18782444  0.01664869    -0.07000
C1294       C  0.60131334  0.21043213  0.02035920     0.13900
C1295       C  0.60788169  0.23568820  0.03611297    -0.23800
H1296       H  0.64304943  0.22844470  0.01131932     0.15200
H1297       H  0.55179116  0.14942876  0.48815128     0.15200
C1298       C  0.58743199  0.14219946  0.46443861    -0.23700
H1299       H  0.61809351  0.25325646  0.02170193     0.05400
H1300       H  0.62185579  0.23893289  0.05354050     0.08700
H1301       H  0.59032798  0.23548897  0.04535353     0.08700
H1302       H  0.60520366  0.14241633  0.45581402     0.08600
H1303       H  0.57577299  0.14273245  0.44635553     0.08600
H1304       H  0.57486582  0.12276481  0.47566661     0.05400
C1305       C  0.72960661  0.23233823  0.01830721    -0.20400
C1306       C  0.72340559  0.22968837  0.48826712    -0.07000
C1307       C  0.74255720  0.24996654  0.47029679     0.13900
C1308       C  0.76608371  0.27181540  0.48177407    -0.20400
C1309       C  0.77123838  0.27580853  0.01199039    -0.07000
C1310       C  0.75315741  0.25432947  0.02975476     0.13900
C1311       C  0.75747379  0.25499570  0.06087224    -0.23800
H1312       H  0.71487812  0.21659138  0.03204798     0.15200
H1313       H  0.78024738  0.28797895  0.46805836     0.15200
C1314       C  0.73726354  0.24974431  0.43941628    -0.23700
H1315       H  0.74027513  0.23738588  0.07160574     0.05400
H1316       H  0.75950206  0.27343758  0.06998951     0.08700
H1317       H  0.77584671  0.25432405  0.06522486     0.08700
H1318       H  0.71835874  0.24980457  0.43620739     0.08600
H1319       H  0.73523608  0.23152383  0.42959573     0.08600
H1320       H  0.75398368  0.26764984  0.42855431     0.05400
C1321       C  0.83657889  0.49156453  0.36525852    -0.20400
C1322       C  0.81235110  0.47679958  0.35035258    -0.07000
C1323       C  0.78762921  0.46233627  0.36520600     0.13900
C1324       C  0.78775846  0.46206953  0.39469041    -0.20400
C1325       C  0.81212691  0.47564732  0.40956004    -0.07000
C1326       C  0.83677475  0.49096912  0.39470932     0.13900
C1327       C  0.86339173  0.50536569  0.40986380    -0.23800
H1328       H  0.85554514  0.50221489  0.35375306     0.15200
H1329       H  0.76893025  0.45006416  0.40615577     0.15200
C1330       C  0.76130081  0.44611659  0.34984822    -0.23700
H1331       H  0.88077324  0.51585311  0.39510286     0.05400
H1332       H  0.86593767  0.49070292  0.42220830     0.08700
H1333       H  0.86391173  0.52064431  0.42415551     0.08700
H1334       H  0.76157195  0.43022927  0.33728240     0.08600
H1335       H  0.75840370  0.45949259  0.33567995     0.08600
H1336       H  0.74377995  0.43617254  0.36450230     0.05400
C1337       C  0.99864223  0.65082083  0.27427201    -0.20400
C1338       C  0.98326518  0.62291968  0.27927745    -0.07000
C1339       C  0.99715403  0.60952266  0.28574969     0.13900
C1340       C  0.02562018  0.62380336  0.28431312    -0.20400
C1341       C  0.04085834  0.65110857  0.27644360    -0.07000
C1342       C  0.02705347  0.66503530  0.27251456     0.13900
C1343       C  0.04166799  0.69456477  0.26509453    -0.23800
H1344       H  0.98830915  0.66141933  0.26989149     0.15200
H1345       H  0.03597068  0.61312047  0.28813208     0.15200
C1346       C  0.98240279  0.58011293  0.29366241    -0.23700
H1347       H  0.02758832  0.70200731  0.26337981     0.05400
H1348       H  0.05204734  0.69809436  0.24452834     0.08700
H1349       H  0.05656709  0.70656068  0.28160745     0.08700
H1350       H  0.97078395  0.56747290  0.27556209     0.08600
H1351       H  0.96857609  0.57629831  0.31162267     0.08600
H1352       H  0.99659175  0.57371001  0.30002133     0.05400
C1353       C  0.89583446  0.55348419  0.14740440    -0.20400
C1354       C  0.90883432  0.57878846  0.16054327    -0.07000
C1355       C  0.92174669  0.60230455  0.14362607     0.13900
C1356       C  0.92019954  0.59974351  0.11438129    -0.20400
C1357       C  0.90607799  0.57446750  0.10122978    -0.07000
C1358       C  0.89419292  0.55092748  0.11812307     0.13900
C1359       C  0.87934300  0.52296813  0.10584825    -0.23800
H1360       H  0.88624037  0.53540169  0.16017004     0.15200
H1361       H  0.92965933  0.61786218  0.10168063     0.15200
C1362       C  0.93665491  0.63029830  0.15584132    -0.23700
H1363       H  0.87194059  0.50715086  0.12230453     0.05400
H1364       H  0.89309180  0.52029546  0.09181157     0.08700
H1365       H  0.86142463  0.51964766  0.09404727     0.08700
H1366       H  0.95362399  0.63301684  0.16898453     0.08600
H1367       H  0.92257048  0.63363138  0.16853785     0.08600
H1368       H  0.94542228  0.64609914  0.13933105     0.05400
C1369       C  0.68246098  0.65405027  0.23010636    -0.20400
C1370       C  0.66718070  0.62576336  0.22854472    -0.07000
C1371       C  0.63884492  0.61291018  0.22435056     0.13900
C1372       C  0.62662200  0.62838734  0.22424357    -0.20400
C1373       C  0.64163179  0.65644846  0.22832324    -0.07000
C1374       C  0.67022715  0.66951811  0.23011157     0.13900
C1375       C  0.68819486  0.69963986  0.23304421    -0.23800
H1376       H  0.70417498  0.66419870  0.23272571     0.15200
H1377       H  0.60484612  0.61818812  0.22216890     0.15200
C1378       C  0.62100648  0.58287250  0.22047520    -0.23700
H1379       H  0.70996811  0.70627401  0.23324966     0.05400
H1380       H  0.68369670  0.70628572  0.25304275     0.08700
H1381       H  0.68503619  0.70976447  0.21509191     0.08700
H1382       H  0.62050169  0.57222178  0.23993121     0.08600
H1383       H  0.62866487  0.57634741  0.20270806     0.08600
H1384       H  0.59980595  0.57670730  0.21572514     0.05400
C1385       C  0.70396043  0.60278914  0.35978519    -0.20400
C1386       C  0.69740953  0.57903349  0.34552485    -0.07000
C1387       C  0.69030147  0.55560151  0.36130576     0.13900
C1388       C  0.69120118  0.55703747  0.39063477    -0.20400
C1389       C  0.69896389  0.58111138  0.40485352    -0.07000
C1390       C  0.70469615  0.60416171  0.38914461     0.13900
C1391       C  0.71126354  0.63021155  0.40288574    -0.23800
H1392       H  0.70886909  0.62061795  0.34784723     0.15200
H1393       H  0.68647068  0.53924977  0.40254697     0.15200
C1394       C  0.68252094  0.52912700  0.34772612    -0.23700
H1395       H  0.71340890  0.64536719  0.38730491     0.05400
H1396       H  0.73071628  0.63910604  0.41423439     0.08700
H1397       H  0.69476348  0.62648042  0.41763844     0.08700
H1398       H  0.69934944  0.53161989  0.33423446     0.08600
H1399       H  0.66397303  0.52180781  0.33506919     0.08600
H1400       H  0.67811853  0.51327871  0.36345210     0.05400
C1401       C  0.80529306  0.61037957  0.27578564    -0.20400
C1402       C  0.79238297  0.60781508  0.25011176    -0.07000
C1403       C  0.80533723  0.60735148  0.22505753     0.13900
C1404       C  0.82970904  0.60772690  0.22662828    -0.20400
C1405       C  0.84132158  0.60781703  0.25247866    -0.07000
C1406       C  0.82927832  0.61006250  0.27741244     0.13900
C1407       C  0.84059867  0.61091277  0.30600145    -0.23800
H1408       H  0.79577637  0.61120708  0.29504988     0.15200
H1409       H  0.83895924  0.60642983  0.20737975     0.15200
C1410       C  0.79318468  0.60508248  0.19660786    -0.23700
H1411       H  0.82882500  0.61335821  0.32291885     0.05400
H1412       H  0.86175690  0.62823010  0.30725049     0.08700
H1413       H  0.83986436  0.59180032  0.31014691     0.08700
H1414       H  0.79052302  0.62238516  0.19310307     0.08600
H1415       H  0.77338696  0.58586198  0.19509594     0.08600
H1416       H  0.80630427  0.60523180  0.17947074     0.05400
C1417       C  0.68698014  0.45818469  0.14046777    -0.20400
C1418       C  0.68458663  0.47776965  0.15506223    -0.07000
C1419       C  0.68277222  0.49748368  0.13963358     0.13900
C1420       C  0.68185426  0.49619867  0.11010715    -0.20400
C1421       C  0.68223675  0.47538850  0.09570222    -0.07000
C1422       C  0.68592513  0.45680525  0.11103118     0.13900
C1423       C  0.68853137  0.43533417  0.09639518    -0.23800
H1424       H  0.68836480  0.44307734  0.15227726     0.15200
H1425       H  0.67927002  0.51057286  0.09830649     0.15200
C1426       C  0.68023762  0.51893334  0.15430516    -0.23700
H1427       H  0.69249691  0.42328551  0.11142807     0.05400
H1428       H  0.70561065  0.44483767  0.08119976     0.08700
H1429       H  0.66962692  0.42129154  0.08513034     0.08700
H1430       H  0.69847026  0.53149523  0.16719516     0.08600
H1431       H  0.66197558  0.50948354  0.16797804     0.08600
H1432       H  0.67841637  0.53237524  0.13920245     0.05400
C1433       C  0.72278122  0.44967735  0.24581230    -0.20400
C1434       C  0.72447925  0.47433952  0.24083423    -0.07000
C1435       C  0.74848908  0.49828253  0.24953191     0.13900
C1436       C  0.77010025  0.49666799  0.26116132    -0.20400
C1437       C  0.76776870  0.47173769  0.26643478    -0.07000
C1438       C  0.74259223  0.44799119  0.26061122     0.13900
C1439       C  0.73455597  0.42046100  0.27161901    -0.23800
H1440       H  0.70483173  0.43097194  0.23967156     0.15200
H1441       H  0.78891953  0.51504781  0.26610477     0.15200
C1442       C  0.75139649  0.52548442  0.24786812    -0.23700
H1443       H  0.71472259  0.41143556  0.28259637     0.05400
H1444       H  0.74881985  0.42103753  0.28728449     0.08700
H1445       H  0.73254705  0.40712247  0.25397346     0.08700
H1446       H  0.73374716  0.52472922  0.25802998     0.08600
H1447       H  0.75334110  0.53202095  0.22578407     0.08600
H1448       H  0.76987041  0.54114592  0.25877309     0.05400
C1449       C  0.54631953  0.32445615  0.36207802    -0.20400
C1450       C  0.52454397  0.32361365  0.34844368    -0.07000
C1451       C  0.50245399  0.32020695  0.36470264     0.13900
C1452       C  0.50376028  0.31983808  0.39421703    -0.20400
C1453       C  0.52664336  0.32293977  0.40777782    -0.07000
C1454       C  0.54757560  0.32391800  0.39136676     0.13900
C1455       C  0.57168611  0.32458642  0.40392694    -0.23800
H1456       H  0.56302991  0.32645933  0.34970283     0.15200
H1457       H  0.48759116  0.31878894  0.40676001     0.15200
C1458       C  0.47830584  0.31869068  0.35122155    -0.23700
H1459       H  0.57305999  0.30755922  0.39553240     0.05400
H1460       H  0.57042494  0.32254834  0.42701443     0.08700
H1461       H  0.59045067  0.34378821  0.39822938     0.08700
H1462       H  0.46764544  0.30046282  0.33794768     0.08600
H1463       H  0.48489490  0.33690985  0.33821641     0.08600
H1464       H  0.46358923  0.31742043  0.36708396     0.05400
C1465       C  0.59417780  0.40402662  0.28006432    -0.20400
C1466       C  0.57451985  0.38348723  0.26287833    -0.07000
C1467       C  0.57800068  0.38776330  0.23332569     0.13900
C1468       C  0.60178111  0.41021323  0.22252488    -0.20400
C1469       C  0.62261287  0.42941285  0.23978020    -0.07000
C1470       C  0.61773828  0.42670865  0.26928855     0.13900
C1471       C  0.63674583  0.44753660  0.29029779    -0.23800
H1472       H  0.59139738  0.40310498  0.30236773     0.15200
H1473       H  0.60351033  0.41234209  0.20014987     0.15200
C1474       C  0.55704998  0.36911280  0.21230034    -0.23700
H1475       H  0.62930657  0.44165175  0.31215759     0.05400
H1476       H  0.63845158  0.46711355  0.28672509     0.08700
H1477       H  0.65703946  0.45019060  0.28974781     0.08700
H1478       H  0.53743932  0.36754300  0.21599908     0.08600
H1479       H  0.55443155  0.34896677  0.21278167     0.08600
H1480       H  0.56308244  0.37651564  0.19046823     0.05400
C1481       C  0.50290459  0.17694676  0.14656907    -0.20400
C1482       C  0.52518339  0.19812920  0.16038472    -0.07000
C1483       C  0.54633645  0.21897068  0.14425025     0.13900
C1484       C  0.54608579  0.21663478  0.11498002    -0.20400
C1485       C  0.52465740  0.19457151  0.10114749    -0.07000
C1486       C  0.50233669  0.17492650  0.11710843     0.13900
C1487       C  0.47877222  0.15083599  0.10342734    -0.23800
H1488       H  0.48667523  0.16103092  0.15893911     0.15200
H1489       H  0.56301380  0.23202079  0.10283612     0.15200
C1490       C  0.56946507  0.24391057  0.15731962    -0.23700
H1491       H  0.46393300  0.13669246  0.11914283     0.05400
H1492       H  0.48603528  0.13973192  0.09095175     0.08700
H1493       H  0.46800128  0.15740214  0.08962200     0.08700
H1494       H  0.58864081  0.24435779  0.15386523     0.08600
H1495       H  0.56641594  0.24514242  0.18006333     0.08600
H1496       H  0.57122474  0.26203799  0.14751182     0.05400
C1497       C  0.51741172  0.25192294  0.22639328    -0.20400
C1498       C  0.51918262  0.23503611  0.24599391    -0.07000
C1499       C  0.51824422  0.23996240  0.27495768     0.13900
C1500       C  0.51927646  0.26355054  0.28344477    -0.20400
C1501       C  0.52000970  0.28169638  0.26375941    -0.07000
C1502       C  0.51717571  0.27487144  0.23496399     0.13900
C1503       C  0.51350388  0.29110536  0.21286043    -0.23800
H1504       H  0.51708669  0.24769933  0.20422307     0.15200
H1505       H  0.52027623  0.26816077  0.30558092     0.15200
C1506       C  0.51589910  0.22069974  0.29744454    -0.23700
H1507       H  0.49468572  0.27776354  0.20103323     0.05400
H1508       H  0.53093073  0.29986865  0.19807519     0.08700
H1509       H  0.51145771  0.30750940  0.22180820     0.08700
H1510       H  0.53438658  0.23045408  0.31051507     0.08600
H1511       H  0.51287493  0.20162998  0.28890794     0.08600
H1512       H  0.49809738  0.21526016  0.31097759     0.05400
C1513       C  0.35020682  0.32696539  0.27502867    -0.20400
C1514       C  0.37858294  0.34184343  0.27254065    -0.07000
C1515       C  0.39224798  0.37039188  0.27315640     0.13900
C1516       C  0.37713014  0.38291857  0.27350857    -0.20400
C1517       C  0.34869056  0.36801476  0.27307215    -0.07000
C1518       C  0.33508660  0.33956372  0.27538772     0.13900
C1519       C  0.30470603  0.32208786  0.27746773    -0.23800
H1520       H  0.33959500  0.30516595  0.27545641     0.15200
H1521       H  0.38779393  0.40470915  0.27263513     0.15200
C1522       C  0.42269367  0.38814137  0.27229730    -0.23700
H1523       H  0.29783329  0.30052885  0.28052444     0.05400
H1524       H  0.29533672  0.32356853  0.25790688     0.08700
H1525       H  0.29736101  0.32844275  0.29566054     0.08700
H1526       H  0.43064266  0.38532148  0.25222063     0.08600
H1527       H  0.43150626  0.38326863  0.29022322     0.08600
H1528       H  0.42961872  0.40983929  0.27381818     0.05400
C1529       C  0.40585366  0.31124868  0.14138266    -0.20400
C1530       C  0.42617423  0.30959738  0.15530747    -0.07000
C1531       C  0.44594201  0.30800463  0.13931102     0.13900
C1532       C  0.44423812  0.30729322  0.10999164    -0.20400
C1533       C  0.42325460  0.30785565  0.09605234    -0.07000
C1534       C  0.40406018  0.31041165  0.11208592     0.13900
C1535       C  0.38157653  0.31230512  0.09883281    -0.23800
H1536       H  0.39090954  0.31280961  0.15358246     0.15200
H1537       H  0.45907476  0.30547175  0.09790014     0.15200
C1538       C  0.46827045  0.30592287  0.15272516    -0.23700
H1539       H  0.36946922  0.31557773  0.11466343     0.05400
H1540       H  0.36750565  0.29328982  0.08775743     0.08700
H1541       H  0.39019287  0.32952177  0.08395482     0.08700
H1542       H  0.45946647  0.28791842  0.16654674     0.08600
H1543       H  0.48153990  0.32434701  0.16506950     0.08600
H1544       H  0.48121633  0.30390423  0.13689626     0.05400
C1545       C  0.39374681  0.01556693  0.22617670    -0.20400
C1546       C  0.37747560  0.02614611  0.23291909    -0.07000
C1547       C  0.34934282  0.00793441  0.23719820     0.13900
C1548       C  0.33897667  0.98004956  0.23702000    -0.20400
C1549       C  0.35579976  0.96960180  0.23307275    -0.07000
C1550       C  0.38341234  0.98769616  0.22624300     0.13900
C1551       C  0.40237765  0.97808594  0.21931332    -0.23800
H1552       H  0.41512781  0.02926741  0.22207899     0.15200
H1553       H  0.31770567  0.96635883  0.24166553     0.15200
C1554       C  0.33010567  0.01739816  0.24327475    -0.23700
H1555       H  0.42255131  0.99490141  0.21239154     0.05400
H1556       H  0.39387919  0.96318697  0.20203646     0.08700
H1557       H  0.40561287  0.96890570  0.23805034     0.08700
H1558       H  0.33072787  0.03028462  0.22581817     0.08600
H1559       H  0.33564023  0.02881369  0.26322530     0.08600
H1560       H  0.30887748  0.00030353  0.24547673     0.05400
C1561       C  0.44282758  0.11280226  0.36538866    -0.20400
C1562       C  0.41806814  0.10009906  0.35109374    -0.07000
C1563       C  0.39363880  0.08687474  0.36685274     0.13900
C1564       C  0.39476644  0.08758874  0.39616374    -0.20400
C1565       C  0.41946879  0.10111552  0.41047092    -0.07000
C1566       C  0.44393688  0.11350500  0.39476957     0.13900
C1567       C  0.47135303  0.12813978  0.40846339    -0.23800
H1568       H  0.46156962  0.12273318  0.35347202     0.15200
H1569       H  0.37599469  0.07779451  0.40802952     0.15200
C1570       C  0.36613632  0.07258914  0.35332536    -0.23700
H1571       H  0.48806980  0.13679369  0.39279355     0.05400
H1572       H  0.47383217  0.11397258  0.42176631     0.08700
H1573       H  0.47353644  0.14503663  0.42133880     0.08700
H1574       H  0.36372655  0.05575550  0.34017781     0.08600
H1575       H  0.36370689  0.08699513  0.34037970     0.08600
H1576       H  0.34948449  0.06383649  0.36906902     0.05400
C1577       C  0.39171729  0.20545668  0.27989731    -0.20400
C1578       C  0.39038161  0.21500776  0.25337643    -0.07000
C1579       C  0.38549978  0.19835197  0.22971674     0.13900
C1580       C  0.38537111  0.17433508  0.23288343    -0.20400
C1581       C  0.39016304  0.16647491  0.25892815    -0.07000
C1582       C  0.39182241  0.18156062  0.28308120     0.13900
C1583       C  0.39487273  0.17359627  0.31225930    -0.23800
H1584       H  0.39466262  0.21773224  0.29816993     0.15200
H1585       H  0.38306497  0.16244119  0.21447073     0.15200
C1586       C  0.38083091  0.20572262  0.20091579    -0.23700
H1587       H  0.39426462  0.18699213  0.32843030     0.05400
H1588       H  0.41464657  0.17506101  0.31428286     0.08700
H1589       H  0.37806429  0.15275509  0.31690946     0.08700
H1590       H  0.39965261  0.22344058  0.19262581     0.08600
H1591       H  0.36438062  0.21011036  0.20183679     0.08600
H1592       H  0.37471477  0.18906499  0.18574720     0.05400
C1593       C  0.98818928  0.32503163  0.22969962    -0.20400
C1594       C  0.97568583  0.33991343  0.22597736    -0.07000
C1595       C  0.99196003  0.36761655  0.21905368     0.13900
C1596       C  0.02026611  0.38016202  0.21937885    -0.20400
C1597       C  0.03281557  0.36584387  0.22633829    -0.07000
C1598       C  0.01646428  0.33756878  0.23019562     0.13900
C1599       C  0.02831918  0.32054387  0.23675494    -0.23800
H1600       H  0.97581378  0.30370229  0.23438913     0.15200
H1601       H  0.03268657  0.40164858  0.21552367     0.15200
C1602       C  0.97987492  0.38426756  0.21159989    -0.23700
H1603       H  0.01242710  0.29892496  0.23922513     0.05400
H1604       H  0.03971870  0.32727011  0.25668668     0.08700
H1605       H  0.04191501  0.32210900  0.21941606     0.08700
H1606       H  0.96991690  0.38692279  0.23015363     0.08600
H1607       H  0.96498004  0.37431995  0.19449614     0.08600
H1608       H  0.99556947  0.40471300  0.20421048     0.05400
C1609       C  0.89772483  0.32591826  0.36295212    -0.20400
C1610       C  0.90438235  0.30909690  0.34856161    -0.07000
C1611       C  0.91212648  0.29356719  0.36426217     0.13900
C1612       C  0.91180770  0.29452176  0.39362946    -0.20400
C1613       C  0.90397086  0.31043977  0.40801695    -0.07000
C1614       C  0.89745850  0.32691240  0.39230075     0.13900
C1615       C  0.89009496  0.34562301  0.40591568    -0.23800
H1616       H  0.89220757  0.33818597  0.35114204     0.15200
H1617       H  0.91715830  0.28212931  0.40545192     0.15200
C1618       C  0.92029837  0.27548651  0.35062889    -0.23700
H1619       H  0.88673259  0.35762011  0.39022419     0.05400
H1620       H  0.90675535  0.36002658  0.41975356     0.08700
H1621       H  0.87105605  0.33386292  0.41816642     0.08700
H1622       H  0.93822173  0.28757604  0.33689620     0.08600
H1623       H  0.90322130  0.25963330  0.33824942     0.08600
H1624       H  0.92586359  0.26516266  0.36630753     0.05400
C1625       C  0.63403562  0.01171882  0.28460522    -0.20400
C1626       C  0.66132981  0.02792945  0.27652974    -0.07000
C1627       C  0.67671160  0.01554706  0.27280459     0.13900
C1628       C  0.66385468  0.98743367  0.27503675    -0.20400
C1629       C  0.63593234  0.97099733  0.28013400    -0.07000
C1630       C  0.62107671  0.98351474  0.28633144     0.13900
C1631       C  0.59145515  0.96756369  0.29410580    -0.23800
H1632       H  0.62228318  0.02103042  0.28820281     0.15200
H1633       H  0.67550616  0.97812020  0.27081163     0.15200
C1634       C  0.70636426  0.03128327  0.26505170    -0.23700
H1635       H  0.58390057  0.98086082  0.30032100     0.05400
H1636       H  0.58818275  0.95412634  0.31212235     0.08700
H1637       H  0.57923372  0.95552180  0.27597513     0.08700
H1638       H  0.71795002  0.04681147  0.28118388     0.08600
H1639       H  0.70924887  0.04088199  0.24420805     0.08600
H1640       H  0.71498852  0.01820542  0.26371653     0.05400
C1641       C  0.68638218  0.08199550  0.11087495    -0.20400
C1642       C  0.67749403  0.09706646  0.09672223    -0.07000
C1643       C  0.66691155  0.11014707  0.11253034     0.13900
C1644       C  0.66734872  0.10929051  0.14190145    -0.20400
C1645       C  0.67819561  0.09593643  0.15596109    -0.07000
C1646       C  0.68682164  0.08115626  0.14018911     0.13900
C1647       C  0.69632099  0.06423833  0.15386189    -0.23800
H1648       H  0.69372870  0.07126357  0.09889992     0.15200
H1649       H  0.66028098  0.12022069  0.15395811     0.15200
C1650       C  0.65612168  0.12596779  0.09893642    -0.23700
H1651       H  0.70006169  0.05238820  0.13824030     0.05400
H1652       H  0.68065990  0.04980092  0.16878200     0.08700
H1653       H  0.71562061  0.07726460  0.16500530     0.08700
H1654       H  0.63864207  0.11250161  0.08546128     0.08600
H1655       H  0.67226618  0.14267496  0.08622340     0.08600
H1656       H  0.64900327  0.13499216  0.11466984     0.05400
C1657       C  0.78634719  0.18208483  0.27621057    -0.20400
C1658       C  0.77711580  0.17028240  0.24987574    -0.07000
C1659       C  0.79446044  0.18138195  0.22631641     0.13900
C1660       C  0.81975338  0.20514338  0.22947399    -0.20400
C1661       C  0.82805083  0.21834572  0.25541404    -0.07000
C1662       C  0.81136615  0.20604598  0.27937970     0.13900
C1663       C  0.81877654  0.21830780  0.30825725    -0.23800
H1664       H  0.77314792  0.17338341  0.29430357     0.15200
H1665       H  0.83261425  0.21407497  0.21120377     0.15200
C1666       C  0.78659877  0.16847377  0.19779626    -0.23700
H1667       H  0.80336632  0.20544987  0.32424252     0.05400
H1668       H  0.82021379  0.23806680  0.30838434     0.08700
H1669       H  0.83828803  0.22076600  0.31475344     0.08700
H1670       H  0.76947704  0.16967169  0.18940274     0.08600
H1671       H  0.78083439  0.14709041  0.19925242     0.08600
H1672       H  0.80354355  0.17873273  0.18249289     0.05400
C1673       C  0.79288772  0.32411430  0.14255070    -0.20400
C1674       C  0.81521397  0.32622964  0.15625531    -0.07000
C1675       C  0.83559136  0.32590660  0.14017459     0.13900
C1676       C  0.83354622  0.32444439  0.11067736    -0.20400
C1677       C  0.81174749  0.32361617  0.09697029    -0.07000
C1678       C  0.79069735  0.32247819  0.11329456     0.13900
C1679       C  0.76564760  0.31973128  0.10061943    -0.23800
H1680       H  0.77724996  0.32442411  0.15480904     0.15200
H1681       H  0.84977421  0.32552517  0.09821598     0.15200
C1682       C  0.86024564  0.32880887  0.15395043    -0.23700
H1683       H  0.74746706  0.30170146  0.10955484     0.05400
H1684       H  0.76479127  0.31716621  0.07759468     0.08700
H1685       H  0.76471539  0.33783444  0.10564401     0.08700
H1686       H  0.85414597  0.31158876  0.16832527     0.08600
H1687       H  0.87086296  0.34788666  0.16601147     0.08600
H1688       H  0.87468715  0.32915739  0.13831790     0.05400
C1689       C  0.82707315  0.40441602  0.22575768    -0.20400
C1690       C  0.82366687  0.38303790  0.24263002    -0.07000
C1691       C  0.82289718  0.38600683  0.27224875     0.13900
C1692       C  0.82291810  0.40842949  0.28324684    -0.20400
C1693       C  0.82415327  0.42876285  0.26616145    -0.07000
C1694       C  0.82734961  0.42693645  0.23672823     0.13900
C1695       C  0.83127869  0.44843279  0.21595363    -0.23800
H1696       H  0.83003725  0.40426164  0.20356760     0.15200
H1697       H  0.82164447  0.40938145  0.30561162     0.15200
C1698       C  0.82219457  0.36602249  0.29313200    -0.23700
H1699       H  0.83234962  0.44268441  0.19401847     0.05400
H1700       H  0.85060489  0.46752100  0.21964488     0.08700
H1701       H  0.81433470  0.45195589  0.21662539     0.08700
H1702       H  0.84022901  0.36434227  0.29078776     0.08600
H1703       H  0.80363123  0.34595254  0.29112059     0.08600
H1704       H  0.82235080  0.37236025  0.31510936     0.05400
C1705       C  0.67837126  0.17598316  0.35934836    -0.20400
C1706       C  0.67629077  0.19632719  0.34610482    -0.07000
C1707       C  0.67551696  0.21602644  0.36285746     0.13900
C1708       C  0.67482497  0.21366345  0.39210206    -0.20400
C1709       C  0.67509596  0.19235954  0.40542733    -0.07000
C1710       C  0.67759954  0.17361256  0.38881053     0.13900
C1711       C  0.67758944  0.15005276  0.40174917    -0.23800
H1712       H  0.67897917  0.16092918  0.34655419     0.15200
H1713       H  0.67340515  0.22837601  0.40471120     0.15200
C1714       C  0.67524814  0.23983029  0.35086127    -0.23700
H1715       H  0.67752802  0.13632087  0.38556146     0.05400
H1716       H  0.65929970  0.13826546  0.41509424     0.08700
H1717       H  0.69600280  0.15722949  0.41448810     0.08700
H1718       H  0.65608237  0.23855219  0.35685515     0.08600
H1719       H  0.67724978  0.24130870  0.32777630     0.08600
H1720       H  0.69248414  0.25872388  0.35948492     0.05400
C1721       C  0.62367891  0.21345404  0.24853892    -0.20400
C1722       C  0.62159163  0.19099358  0.26218016    -0.07000
C1723       C  0.59508265  0.16875419  0.26790327     0.13900
C1724       C  0.57244333  0.16903564  0.25807534    -0.20400
C1725       C  0.57457367  0.19107614  0.24336833    -0.07000
C1726       C  0.60108196  0.21387449  0.23901208     0.13900
C1727       C  0.60724235  0.23965877  0.22469053    -0.23800
H1728       H  0.64298315  0.23177324  0.24581591     0.15200
H1729       H  0.55309178  0.15142224  0.26240539     0.15200
C1730       C  0.58970175  0.14442673  0.28487340    -0.23700
H1731       H  0.61806971  0.25675123  0.23946700     0.05400
H1732       H  0.58947275  0.23985662  0.21724092     0.08700
H1733       H  0.62049281  0.24341103  0.20620490     0.08700
H1734       H  0.56780877  0.13065472  0.28939839     0.08600
H1735       H  0.59986619  0.15055386  0.30542951     0.08600
H1736       H  0.59614811  0.13224387  0.27336098     0.05400
C1737       C  0.72958252  0.23863432  0.23323812    -0.20400
C1738       C  0.72464763  0.23585477  0.26230361    -0.07000
C1739       C  0.74443744  0.25522321  0.28040051     0.13900
C1740       C  0.76760078  0.27778337  0.26891368    -0.20400
C1741       C  0.77149866  0.28160408  0.23978400    -0.07000
C1742       C  0.75269991  0.26126183  0.22172917     0.13900
C1743       C  0.75576574  0.26412487  0.19037084    -0.23800
H1744       H  0.71442584  0.22366951  0.21937176     0.15200
H1745       H  0.78223533  0.29325626  0.28275966     0.15200
C1746       C  0.74046607  0.25324054  0.31167626    -0.23700
H1747       H  0.73841554  0.24697878  0.17950110     0.05400
H1748       H  0.77433251  0.26466598  0.18354599     0.08700
H1749       H  0.75680496  0.28286825  0.18371858     0.08700
H1750       H  0.73893941  0.23460796  0.31957392     0.08600
H1751       H  0.72179371  0.25304284  0.31708981     0.08600
H1752       H  0.75758598  0.27058019  0.32258540     0.05400
C1753       C  0.64630942  0.19072156  0.77271890     0.86400
C1754       C  0.67412338  0.21405770  0.76220281    -0.53800
C1755       C  0.69592915  0.21459823  0.77346898     0.09300
C1756       C  0.68821329  0.19154188  0.79448183     0.20300
C1757       C  0.64778306  0.16570751  0.76602991    -0.54600
C1758       C  0.66932502  0.16578230  0.77756649     0.09400
C1759       C  0.64805215  0.19339042  0.80470965    -0.54100
C1760       C  0.66979949  0.19396001  0.81628464     0.10000
H1761       H  0.67736364  0.22854939  0.74618749     0.14500
H1762       H  0.70593881  0.19186772  0.80359416     0.00300
H1763       H  0.63405884  0.15018940  0.75160219     0.14800
H1764       H  0.63328051  0.19497325  0.81728841     0.14600
C1765       C  0.81991177  0.35629298  0.72717344     0.86400
C1766       C  0.79477888  0.33032800  0.73797551    -0.53800
C1767       C  0.79291050  0.30697195  0.72970545     0.09300
C1768       C  0.81618550  0.31164267  0.70998297     0.20300
C1769       C  0.84419674  0.35386624  0.73480956    -0.54600
C1770       C  0.84209866  0.33047776  0.72650117     0.09400
C1771       C  0.81777856  0.35244006  0.69502615    -0.54100
C1772       C  0.81600958  0.32928925  0.68598987     0.10000
H1773       H  0.77945271  0.33037871  0.75111586     0.14500
H1774       H  0.81487027  0.29284638  0.70306331     0.00300
H1775       H  0.86155703  0.36930970  0.74621742     0.14800
H1776       H  0.81708374  0.36594227  0.68003555     0.14600
O1777       O  0.67599694  0.11484301  0.70229772    -0.57900
C1778       C  0.67627913  0.14547358  0.76988170     0.74700
O1779       O  0.69959517  0.07477844  0.76690936    -0.59100
C1780       C  0.68616712  0.10408053  0.68780032     0.74700
C1781       C  0.75178904  0.15015615  0.75086585     0.77100
Cd1782     Cd  0.69484318  0.11155440  0.74754058     1.37500
O1783       O  0.66231553  0.12673992  0.75265206    -0.57900
O1784       O  0.73963876  0.14225342  0.72773423    -0.56700
C1785       C  0.67469645  0.05763322  0.76983431     0.77100
O1786       O  0.73758991  0.13891664  0.77257519    -0.59100
O1787       O  0.69732396  0.14676748  0.77897800    -0.57500
O1788       O  0.69995862  0.09669803  0.70108259    -0.57500
O1789       O  0.65911614  0.06634496  0.76536899    -0.56700
O1790       O  0.89134076  0.32195783  0.80543062    -0.57900
C1791       C  0.86140675  0.32285261  0.73571865     0.74700
O1792       O  0.93431446  0.30411734  0.74011701    -0.59100
C1793       C  0.90596528  0.31506689  0.81798639     0.74700
C1794       C  0.85563008  0.24832171  0.75923814     0.77100
Cd1795     Cd  0.89489073  0.30491765  0.75898012     1.37500
O1796       O  0.87997116  0.33700211  0.75306597    -0.57900
O1797       O  0.86208818  0.26260338  0.78102288    -0.56700
C1798       C  0.94742144  0.32853656  0.73244686     0.77100
O1799       O  0.86942391  0.25992913  0.73738705    -0.59100
O1800       O  0.85945193  0.30122275  0.72774276    -0.57500
O1801       O  0.91674518  0.30545373  0.80273205    -0.57500
O1802       O  0.93488107  0.34082048  0.73445072    -0.56700
O1803       O  0.44119845  0.11494189  0.80314138    -0.57900
C1804       C  0.47110529  0.14370547  0.73397427     0.74700
O1805       O  0.37880826  0.06675942  0.73922470    -0.59100
C1806       C  0.41993752  0.10071630  0.81754309     0.74700
C1807       C  0.39804900  0.14421277  0.75847204     0.77100
Cd1808     Cd  0.41842274  0.10857367  0.75828178     1.37500
O1809       O  0.46638005  0.12583755  0.75198789    -0.57900
O1810       O  0.40889100  0.14070470  0.77954751    -0.56700
C1811       C  0.39107780  0.05424735  0.73610969     0.77100
O1812       O  0.39480789  0.12956388  0.73734022    -0.59100
O1813       O  0.45087398  0.14421252  0.72512332    -0.57500
O1814       O  0.39795525  0.08927583  0.80415573    -0.57500
O1815       O  0.41627032  0.06790951  0.74033519    -0.56700
O1816       O  0.46897655  0.33306807  0.75234642    -0.57900
C1817       C  0.42304650  0.30999767  0.68825506     0.74700
O1818       O  0.39999083  0.25627995  0.77229062    -0.59100
C1819       C  0.47337877  0.31990886  0.77035606     0.74700
C1820       C  0.39111712  0.32458100  0.76876743     0.77100
Cd1821     Cd  0.42045028  0.30021944  0.74761505     1.37500
O1822       O  0.44412495  0.31739970  0.70243469    -0.57900
O1823       O  0.41662214  0.33755804  0.76698766    -0.56700
C1824       C  0.39937171  0.24319922  0.75073987     0.77100
O1825       O  0.37949588  0.29965372  0.76366582    -0.59100
O1826       O  0.40099506  0.29837442  0.70184980    -0.57500
O1827       O  0.45293217  0.29863006  0.77970604    -0.57500
O1828       O  0.40668491  0.25631686  0.72804123    -0.56700
C1829       C  0.54856501  0.18744015  0.72845123     0.86400
C1830       C  0.54647078  0.21057968  0.74085477    -0.53800
C1831       C  0.52513014  0.21215737  0.73163900     0.09300
C1832       C  0.50752835  0.19027076  0.70997604     0.20300
C1833       C  0.52045318  0.16220535  0.73475114    -0.54600
C1834       C  0.49911138  0.16377092  0.72537208     0.09400
C1835       C  0.54823863  0.19040050  0.69659665    -0.54100
C1836       C  0.52729690  0.19239360  0.68683395     0.10000
H1837       H  0.56046176  0.22428227  0.75646211     0.14500
H1838       H  0.49025439  0.19156765  0.70215891     0.00300
H1839       H  0.51675609  0.14460783  0.74616342     0.14800
H1840       H  0.56278192  0.18986101  0.68261904     0.14600
C1841       C  0.55047850  0.35514156  0.77600016     0.86400
C1842       C  0.54862569  0.32982026  0.76357009    -0.53800
C1843       C  0.52644334  0.30604492  0.77200634     0.09300
C1844       C  0.50845738  0.30941581  0.79338225     0.20300
C1845       C  0.52302490  0.35209998  0.77011581    -0.54600
C1846       C  0.50113069  0.32819446  0.77858863     0.09400
C1847       C  0.54970397  0.35021729  0.80795220    -0.54100
C1848       C  0.52771819  0.32655437  0.81711202     0.10000
H1849       H  0.56388844  0.33049487  0.74973647     0.14500
H1850       H  0.49078735  0.28989607  0.80036895     0.00300
H1851       H  0.52106799  0.36744351  0.75946549     0.14800
H1852       H  0.56494867  0.36349331  0.82270949     0.14600
C1853       C  0.64724228  0.45417299  0.72986801     0.86400
C1854       C  0.67166919  0.45387046  0.74141088    -0.53800
C1855       C  0.69665844  0.47452432  0.73284927     0.09300
C1856       C  0.69452476  0.49420162  0.71260066     0.20300
C1857       C  0.65247047  0.48213540  0.73702142    -0.54600
C1858       C  0.67716496  0.50308663  0.72858675     0.09400
C1859       C  0.65171854  0.45535171  0.69777485    -0.54100
C1860       C  0.67611580  0.47623465  0.68871940     0.10000
H1861       H  0.66900154  0.43801062  0.75544433     0.14500
H1862       H  0.71403106  0.51094933  0.70460227     0.00300
H1863       H  0.63779926  0.48516395  0.74790131     0.14800
H1864       H  0.63757179  0.44132866  0.68266540     0.14600
O1865       O  0.67354710  0.53641313  0.75425136    -0.57900
C1866       C  0.69810712  0.58206023  0.81802035     0.74700
O1867       O  0.75114051  0.60322657  0.73406970    -0.59100
C1868       C  0.68656713  0.53118046  0.73661742     0.74700
C1869       C  0.68233052  0.61373915  0.73582909     0.77100
Cd1870     Cd  0.70683660  0.58475399  0.75829726     1.37500
O1871       O  0.68834554  0.56108322  0.80315655    -0.57900
O1872       O  0.67039199  0.58836995  0.73598566    -0.56700
C1873       C  0.76385027  0.60458189  0.75614788     0.77100
O1874       O  0.70673422  0.62591772  0.74361320    -0.59100
O1875       O  0.71060677  0.60416201  0.80481998    -0.57500
O1876       O  0.70835028  0.55107858  0.72724524    -0.57500
O1877       O  0.75047686  0.59897563  0.77873277    -0.56700
O1878       O  0.89034775  0.55891899  0.70716980    -0.57900
C1879       C  0.85966756  0.52690612  0.77176534     0.74700
O1880       O  0.94125432  0.62098667  0.76610374    -0.59100
C1881       C  0.90312138  0.58039392  0.69294853     0.74700
C1882       C  0.86170359  0.60225949  0.75745259     0.77100
Cd1883     Cd  0.89671783  0.58115736  0.75268416     1.37500
O1884       O  0.87741323  0.53270537  0.75299719    -0.57900
O1885       O  0.86742746  0.59558105  0.73445847    -0.56700
C1886       C  0.95265704  0.60816840  0.77219172     0.77100
O1887       O  0.87407380  0.60118936  0.77877635    -0.59100
O1888       O  0.86020256  0.54652182  0.78386463    -0.57500
O1889       O  0.91333016  0.60203350  0.70672603    -0.57500
O1890       O  0.93721139  0.58284950  0.77260010    -0.56700
C1891       C  0.81802404  0.44981739  0.77518565     0.86400
C1892       C  0.79342851  0.44963367  0.76328703    -0.53800
C1893       C  0.78954804  0.46951691  0.77294318     0.09300
C1894       C  0.81193143  0.48892073  0.79351134     0.20300
C1895       C  0.84214543  0.47808325  0.76907824    -0.54600
C1896       C  0.83905852  0.49853875  0.77812670     0.09400
C1897       C  0.81403573  0.44989500  0.80735368    -0.54100
C1898       C  0.81120412  0.47038643  0.81681028     0.10000
H1899       H  0.77986100  0.43446359  0.74852546     0.14500
H1900       H  0.80955489  0.50549233  0.80142195     0.00300
H1901       H  0.86044408  0.48167550  0.75867760     0.14800
H1902       H  0.81372466  0.43581115  0.82225684     0.14600
C1903       C  0.64625236  0.18890879  0.98153812     0.86400
C1904       C  0.64816142  0.19140093  0.94947745    -0.53800
C1905       C  0.66940477  0.19084149  0.93768958     0.09300
C1906       C  0.68759186  0.18842093  0.95947726     0.20300
C1907       C  0.64700111  0.16344751  0.98839530    -0.54600
C1908       C  0.66835456  0.16298158  0.97668761     0.09400
C1909       C  0.67419713  0.21181045  0.99171675    -0.54100
C1910       C  0.69568014  0.21160443  0.98027686     0.10000
H1911       H  0.63355259  0.19318568  0.93704140     0.14500
H1912       H  0.70532957  0.18855065  0.95051409     0.00300
H1913       H  0.63231921  0.14555423  0.50056044     0.14800
H1914       H  0.67749747  0.22512318  0.50521370     0.14600
C1915       C  0.81615195  0.35083273  0.52318938     0.86400
C1916       C  0.81380655  0.34821075  0.55522884    -0.53800
C1917       C  0.81201442  0.32553206  0.56572221     0.09300
C1918       C  0.81391005  0.30768141  0.54307612     0.20300
C1919       C  0.84150036  0.34930655  0.51666446    -0.54600
C1920       C  0.84019397  0.32675802  0.52691475     0.09400
C1921       C  0.79287134  0.32416031  0.51175830    -0.54100
C1922       C  0.79134519  0.30150415  0.52191007     0.10000
H1923       H  0.81440209  0.36349974  0.56873930     0.14500
H1924       H  0.81331880  0.28964320  0.55136827     0.00300
H1925       H  0.85918621  0.36486327  0.00373953     0.14800
H1926       H  0.77896325  0.32335015  0.49609194     0.14600
O1927       O  0.66078411  0.12382620  0.00158160    -0.57900
C1928       C  0.68439529  0.10252862  0.56658428     0.74700
O1929       O  0.69927619  0.07264688  0.98764086    -0.59100
C1930       C  0.67491339  0.14242988  0.98416445     0.74700
C1931       C  0.75229729  0.14654866  0.50885473     0.77100
Cd1932     Cd  0.69459760  0.10819169  0.50714433     1.37500
O1933       O  0.67600453  0.11418882  0.55108747    -0.57900
O1934       O  0.73793249  0.13665710  0.53060752    -0.56700
C1935       C  0.67449234  0.05518791  0.98472251     0.77100
O1936       O  0.73851306  0.13802520  0.98535365    -0.59100
O1937       O  0.69636191  0.09239916  0.55419484    -0.57500
O1938       O  0.69589918  0.14350621  0.97482036    -0.57500
O1939       O  0.65732591  0.06290400  0.49263585    -0.56700
O1940       O  0.90056723  0.32814822  0.95523391    -0.57900
C1941       C  0.86035072  0.31962499  0.51940822     0.74700
O1942       O  0.86895594  0.25867643  0.52553086    -0.59100
C1943       C  0.90407551  0.31286568  0.93930302     0.74700
C1944       C  0.94938019  0.32899067  0.52064305     0.77100
Cd1945     Cd  0.89503360  0.30260292  0.99867658     1.37500
O1946       O  0.87738037  0.33171751  0.49990360    -0.57900
O1947       O  0.93638502  0.33790794  0.02225425    -0.56700
C1948       C  0.85489073  0.24630285  0.00349101     0.77100
O1949       O  0.93583195  0.30372506  0.51728450    -0.59100
O1950       O  0.86061151  0.30029069  0.53105710    -0.57500
O1951       O  0.90398253  0.29340706  0.95117975    -0.57500
O1952       O  0.86236781  0.25826531  0.98013788    -0.56700
O1953       O  0.44156404  0.32137401  0.55293989    -0.57900
C1954       C  0.47212035  0.31685489  0.98305266     0.74700
O1955       O  0.39921609  0.25224675  0.98077898    -0.59100
C1956       C  0.41998195  0.31024687  0.56732223     0.74700
C1957       C  0.39012870  0.32044698  0.98258766     0.77100
Cd1958     Cd  0.42038834  0.29978815  0.50846059     1.37500
O1959       O  0.46669044  0.32995351  0.00021002    -0.57900
O1960       O  0.41725719  0.33687042  0.48763738    -0.56700
C1961       C  0.39953244  0.24268122  0.50913765     0.77100
O1962       O  0.37830977  0.29527454  0.98641632    -0.59100
O1963       O  0.45230844  0.29477510  0.97450101    -0.57500
O1964       O  0.39845936  0.29515024  0.55401092    -0.57500
O1965       O  0.41241901  0.25796029  0.52941617    -0.56700
O1966       O  0.44327912  0.11862476  0.95330650    -0.57900
C1967       C  0.47091823  0.14438232  0.51900276     0.74700
O1968       O  0.40021728  0.13228432  0.52965382    -0.59100
C1969       C  0.42282006  0.10296340  0.93880913     0.74700
C1970       C  0.39013834  0.05287193  0.52293989     0.77100
Cd1971     Cd  0.41930971  0.10844175  0.99854868     1.37500
O1972       O  0.46509578  0.12724098  0.49982885    -0.57900
O1973       O  0.41761158  0.06859481  0.01832658    -0.56700
C1974       C  0.39507136  0.14218623  0.50870711     0.77100
O1975       O  0.37671791  0.06335857  0.51579273    -0.59100
O1976       O  0.45125815  0.14401890  0.53110805    -0.57500
O1977       O  0.40089787  0.08902890  0.95228932    -0.57500
O1978       O  0.40644540  0.13875637  0.97972381    -0.56700
C1979       C  0.54863659  0.18586661  0.52385323     0.86400
C1980       C  0.54730871  0.18642189  0.55603434    -0.53800
C1981       C  0.52663879  0.18867521  0.56650524     0.09300
C1982       C  0.50833744  0.18948329  0.54379762     0.20300
C1983       C  0.52024171  0.16211350  0.51581945    -0.54600
C1984       C  0.49931340  0.16407721  0.52617804     0.09400
C1985       C  0.54828538  0.21071326  0.51366542    -0.54100
C1986       C  0.52749932  0.21280936  0.52408263     0.10000
H1987       H  0.56187153  0.18554946  0.56947793     0.14500
H1988       H  0.49134836  0.19113660  0.55212158     0.00300
H1989       H  0.51616273  0.14511565  0.50302321     0.14800
H1990       H  0.56313711  0.22530371  0.49901818     0.14600
C1991       C  0.54972940  0.35262994  0.97911174     0.86400
C1992       C  0.55001507  0.34907255  0.94725072    -0.53800
C1993       C  0.52878487  0.32552985  0.93720637     0.09300
C1994       C  0.50823834  0.30769877  0.96000896     0.20300
C1995       C  0.52191636  0.34955510  0.98474594    -0.54600
C1996       C  0.50031505  0.32601878  0.97499549     0.09400
C1997       C  0.54614136  0.32679498  0.99203888    -0.54100
C1998       C  0.52491509  0.30325877  0.98194982     0.10000
H1999       H  0.56542916  0.36430304  0.93353675     0.14500
H2000       H  0.49052905  0.28891284  0.95203137     0.00300
H2001       H  0.52054956  0.36529357  0.49969294     0.14800
H2002       H  0.56152686  0.32912942  0.50852769     0.14600
C2003       C  0.65169736  0.45087363  0.52588882     0.86400
C2004       C  0.65419418  0.45147253  0.55791299    -0.53800
C2005       C  0.67709130  0.47340468  0.56824322     0.09300
C2006       C  0.69562874  0.49339673  0.54535343     0.20300
C2007       C  0.65473458  0.47793801  0.51789965    -0.54600
C2008       C  0.67741861  0.50012696  0.52825292     0.09400
C2009       C  0.67857328  0.45435777  0.51509732    -0.54100
C2010       C  0.70132586  0.47653375  0.52487153     0.10000
H2011       H  0.63883006  0.43584627  0.57135748     0.14500
H2012       H  0.71427629  0.51129035  0.55353952     0.00300
H2013       H  0.64067531  0.47937658  0.50418453     0.14800
H2014       H  0.68053869  0.44174978  0.49988603     0.14600
O2015       O  0.68808362  0.56143950  0.95334927    -0.57900
C2016       C  0.68612786  0.52775678  0.51918039     0.74700
O2017       O  0.75115728  0.60101222  0.52099898    -0.59100
C2018       C  0.70101627  0.58312589  0.93945770     0.74700
C2019       C  0.68347414  0.61059662  0.51555076     0.77100
Cd2020     Cd  0.70681526  0.58162883  0.99904702     1.37500
O2021       O  0.67432799  0.53216882  0.49960055    -0.57900
O2022       O  0.66963213  0.58716018  0.01627594    -0.56700
C2023       C  0.76418178  0.59867833  0.50089536     0.77100
O2024       O  0.70883696  0.62136461  0.51363809    -0.59100
O2025       O  0.70665638  0.54815516  0.52947835    -0.57500
O2026       O  0.71632566  0.60408765  0.95344632    -0.57500
O2027       O  0.75143931  0.59451580  0.98085103    -0.56700
O2028       O  0.89097717  0.55349926  0.55769417    -0.57900
C2029       C  0.86035087  0.52212505  0.98664306     0.74700
O2030       O  0.87543601  0.59685969  0.98657407    -0.59100
C2031       C  0.90324972  0.57515290  0.57150575     0.74700
C2032       C  0.95130156  0.60087171  0.98820359     0.77100
Cd2033     Cd  0.89759460  0.57485550  0.51157689     1.37500
O2034       O  0.87635284  0.52548469  0.00631342    -0.57900
O2035       O  0.93988766  0.57772723  0.49584382    -0.56700
C2036       C  0.86136365  0.59482006  0.50722175     0.77100
O2037       O  0.93968649  0.61378238  0.99314172    -0.59100
O2038       O  0.86229457  0.54311974  0.97654432    -0.57500
O2039       O  0.91373079  0.59665347  0.55722457    -0.57500
O2040       O  0.86487270  0.58560818  0.52968616    -0.56700
C2041       C  0.81256104  0.44575835  0.97818417     0.86400
C2042       C  0.81049372  0.44716657  0.94627682    -0.53800
C2043       C  0.81174526  0.46986877  0.93681761     0.09300
C2044       C  0.81456023  0.48937419  0.96024522     0.20300
C2045       C  0.83821384  0.47229598  0.98667615    -0.54600
C2046       C  0.83950370  0.49500020  0.97710117     0.09400
C2047       C  0.78956480  0.44940372  0.98944880    -0.54100
C2048       C  0.79093544  0.47233854  0.98056940     0.10000
H2049       H  0.80799543  0.43137461  0.93221703     0.14500
H2050       H  0.81533396  0.50776831  0.95261864     0.00300
H2051       H  0.85431649  0.47240020  0.50246498     0.14800
H2052       H  0.77508259  0.43652205  0.50789436     0.14600
O2053       O  0.13856733  0.46123888  0.50347089    -0.57900
C2054       C  0.11329013  0.41288375  0.93717545     0.74700
O2055       O  0.14071566  0.38941369  0.52020024    -0.59100
C2056       C  0.15576837  0.46489847  0.52189167     0.74700
C2057       C  0.06573744  0.38429040  0.52006083     0.77100
Cd2058     Cd  0.11985127  0.41113051  0.99672293     1.37500
O2059       O  0.12768883  0.43402559  0.95127500    -0.57900
O2060       O  0.07764973  0.40589670  0.01553085    -0.56700
C2061       C  0.15561763  0.39209838  0.49933636     0.77100
O2062       O  0.07837827  0.37241104  0.51533218    -0.59100
O2063       O  0.10106414  0.39115498  0.95105857    -0.57500
O2064       O  0.15526217  0.44413458  0.53049693    -0.57500
O2065       O  0.15182104  0.40115274  0.97615593    -0.56700
O2066       O  0.34310649  0.45628991  0.00124681    -0.57900
C2067       C  0.31779759  0.41065308  0.56587402     0.74700
O2068       O  0.26647096  0.39061703  0.98034036    -0.59100
C2069       C  0.33001605  0.46153156  0.98399042     0.74700
C2070       C  0.33300530  0.37682870  0.98235586     0.77100
Cd2071     Cd  0.30964458  0.40793653  0.50631165     1.37500
O2072       O  0.32880508  0.43150015  0.55061209    -0.57900
O2073       O  0.34702127  0.40303294  0.48861046    -0.56700
C2074       C  0.25312416  0.38785936  0.00259698     0.77100
O2075       O  0.30775718  0.36676476  0.98415646    -0.59100
O2076       O  0.30402792  0.38839700  0.55328369    -0.57500
O2077       O  0.30887949  0.44150768  0.97401785    -0.57500
O2078       O  0.26534901  0.39172529  0.52751903    -0.56700
C2079       C  0.20266241  0.54134415  0.53000939     0.86400
C2080       C  0.22616714  0.53867064  0.51915732    -0.53800
C2081       C  0.22549655  0.51594623  0.52768673     0.09300
C2082       C  0.20177703  0.49829039  0.54792300     0.20300
C2083       C  0.17678891  0.51460480  0.52266198    -0.54600
C2084       C  0.17642325  0.49216787  0.53147854     0.09400
C2085       C  0.20483553  0.53997693  0.56218799    -0.54100
C2086       C  0.20420770  0.51750058  0.57162596     0.10000
H2087       H  0.24160833  0.55317850  0.50490522     0.14500
H2088       H  0.20111978  0.47990252  0.55515129     0.00300
H2089       H  0.16074625  0.51359693  0.51007957     0.14800
H2090       H  0.20718352  0.55516989  0.57688590     0.14600
C2091       C  0.36427046  0.53882481  0.98112810     0.86400
C2092       C  0.33727530  0.53525039  0.99162038    -0.53800
C2093       C  0.31453233  0.51361438  0.98095554     0.09300
C2094       C  0.32048664  0.49702461  0.96018948     0.20300
C2095       C  0.36086345  0.51139901  0.98810740    -0.54600
C2096       C  0.33828594  0.48960377  0.97702166     0.09400
C2097       C  0.36210589  0.53931780  0.94908928    -0.54100
C2098       C  0.33967866  0.51747059  0.93796389     0.10000
H2099       H  0.33545672  0.54699799  0.50609928     0.14500
H2100       H  0.30198134  0.47938064  0.95152121     0.00300
H2101       H  0.37486580  0.50893849  0.50089672     0.14800
H2102       H  0.37714204  0.55574070  0.93613863     0.14600
O2103       O  0.12743941  0.66738635  0.55451069    -0.57900
C2104       C  0.15993245  0.66811377  0.98629382     0.74700
O2105       O  0.08391773  0.68301535  0.98466393    -0.59100
C2106       C  0.11485883  0.67644389  0.56767019     0.74700
C2107       C  0.16216605  0.74160875  0.50681409     0.77100
Cd2108     Cd  0.12461545  0.68447382  0.50823649     1.37500
O2109       O  0.14229926  0.65467990  0.00492168    -0.57900
O2110       O  0.15758585  0.72760201  0.52869743    -0.56700
C2111       C  0.06811526  0.65773794  0.98492389     0.77100
O2112       O  0.14607637  0.72782241  0.98340828    -0.59100
O2113       O  0.15890498  0.68722431  0.97519660    -0.57500
O2114       O  0.10590223  0.68801224  0.55292088    -0.57500
O2115       O  0.08097454  0.64664346  0.48993215    -0.56700
O2116       O  0.35197770  0.86959958  0.50583094    -0.57900
C2117       C  0.32687457  0.89115513  0.94172320     0.74700
O2118       O  0.27497861  0.85808509  0.52641031    -0.59100
C2119       C  0.33807153  0.85025571  0.52258146     0.74700
C2120       C  0.33880896  0.93712549  0.52242852     0.77100
Cd2121     Cd  0.31641724  0.88368325  0.00109956     1.37500
O2122       O  0.33674698  0.88078601  0.95702164    -0.57900
O2123       O  0.35189216  0.92739476  0.02057452    -0.56700
C2124       C  0.26208983  0.84369715  0.50550767     0.77100
O2125       O  0.31430178  0.92123429  0.51635833    -0.59100
O2126       O  0.31276661  0.89880927  0.95422145    -0.57500
O2127       O  0.31622093  0.84761316  0.53141173    -0.57500
O2128       O  0.27361655  0.84940363  0.98126839    -0.56700
C2129       C  0.37332353  0.81002247  0.52825901     0.86400
C2130       C  0.34770008  0.78492791  0.51713893    -0.53800
C2131       C  0.32390175  0.78207134  0.52588796     0.09300
C2132       C  0.32770643  0.80442608  0.54620549     0.20300
C2133       C  0.37007086  0.83390698  0.52125795    -0.54600
C2134       C  0.34621683  0.83093087  0.53017116     0.09400
C2135       C  0.36925323  0.80714317  0.56036913    -0.54100
C2136       C  0.34564434  0.80433324  0.56987520     0.10000
H2137       H  0.34829973  0.77035778  0.50342873     0.14500
H2138       H  0.30833599  0.80199991  0.55334484     0.00300
H2139       H  0.38536794  0.85173235  0.51016819     0.14800
H2140       H  0.38318849  0.80716103  0.57523173     0.14600
C2141       C  0.20480285  0.63783463  0.98006045     0.86400
C2142       C  0.22936310  0.66411106  0.99081676    -0.53800
C2143       C  0.23064989  0.68714840  0.98241419     0.09300
C2144       C  0.20734861  0.68189307  0.96261322     0.20300
C2145       C  0.17993291  0.63945287  0.98761208    -0.54600
C2146       C  0.18118248  0.66233893  0.97887732     0.09400
C2147       C  0.20730586  0.64182884  0.94788410    -0.54100
C2148       C  0.20845704  0.66465391  0.93871143     0.10000
H2149       H  0.24445126  0.66382399  0.50439368     0.14500
H2150       H  0.20835318  0.70053270  0.95561842     0.00300
H2151       H  0.16230666  0.62265662  0.49879032     0.14800
H2152       H  0.20858353  0.62859927  0.93293811     0.14600
C2153       C  0.46749313  0.81062225  0.98365795     0.86400
C2154       C  0.46612918  0.78556720  0.99598444    -0.53800
C2155       C  0.48586634  0.78108149  0.98684436     0.09300
C2156       C  0.50628784  0.80327104  0.96652438     0.20300
C2157       C  0.49594166  0.83401876  0.99023336    -0.54600
C2158       C  0.51626604  0.83026043  0.98198633     0.09400
C2159       C  0.46820813  0.80679564  0.95159481    -0.54100
C2160       C  0.48841943  0.80301306  0.94266300     0.10000
H2161       H  0.45034614  0.76828602  0.50767487     0.14500
H2162       H  0.52275231  0.80033041  0.95915796     0.00300
H2163       H  0.49846015  0.84788400  0.50068420     0.14800
H2164       H  0.45430480  0.80672982  0.93659851     0.14600
O2165       O  0.57457278  0.88231440  0.55495400    -0.57900
C2166       C  0.54457855  0.84969285  0.99002511     0.74700
O2167       O  0.63851056  0.92933869  0.99520539    -0.59100
C2168       C  0.59549439  0.89283757  0.57000732     0.74700
C2169       C  0.61750369  0.84799137  0.50928277     0.77100
Cd2170     Cd  0.59741456  0.88397054  0.51080387     1.37500
O2171       O  0.54888037  0.86448894  0.50782264    -0.57900
O2172       O  0.60695957  0.85157546  0.53079165    -0.56700
C2173       C  0.62215730  0.93789164  0.48675333     0.77100
O2174       O  0.61888271  0.86352581  0.98586153    -0.59100
O2175       O  0.56426394  0.84808177  0.98115282    -0.57500
O2176       O  0.61757304  0.90038631  0.55730559    -0.57500
O2177       O  0.59715329  0.92069615  0.48538134    -0.56700
O2178       O  0.57345695  0.67319790  0.94991007    -0.57900
C2179       C  0.54362438  0.67182781  0.51690235     0.74700
O2180       O  0.63801462  0.69177440  0.51118110    -0.59100
C2181       C  0.59435983  0.68485681  0.93455770     0.74700
C2182       C  0.61864720  0.74976609  0.50496935     0.77100
Cd2183     Cd  0.59683680  0.69347532  0.99427911     1.37500
O2184       O  0.54922717  0.66033378  0.49787768    -0.57900
O2185       O  0.60988913  0.73812140  0.97694213    -0.56700
C2186       C  0.62553289  0.66684096  0.51667566     0.77100
O2187       O  0.61537063  0.73445450  0.52539472    -0.59100
O2188       O  0.56340733  0.69203587  0.52844272    -0.57500
O2189       O  0.61643952  0.69988743  0.94712885    -0.57500
O2190       O  0.60026990  0.65679675  0.01621785    -0.56700
C2191       C  0.46608009  0.63372839  0.52368567     0.86400
C2192       C  0.46701555  0.65865545  0.51201216    -0.53800
C2193       C  0.48769235  0.68301218  0.52130150     0.09300
C2194       C  0.50692786  0.67986693  0.54114781     0.20300
C2195       C  0.49403560  0.63859374  0.51522146    -0.54600
C2196       C  0.51536814  0.66268311  0.52432603     0.09400
C2197       C  0.46799274  0.63695534  0.55570006    -0.54100
C2198       C  0.48887493  0.66102996  0.56484504     0.10000
H2199       H  0.45229549  0.65680619  0.49680217     0.14500
H2200       H  0.52397218  0.69886076  0.54944347     0.00300
H2201       H  0.49739409  0.62486721  0.50318035     0.14800
H2202       H  0.45455876  0.62107739  0.57012974     0.14600
O2203       O  0.57411226  0.67782592  0.79958537    -0.57900
C2204       C  0.54237934  0.67557451  0.73260963     0.74700
O2205       O  0.61618740  0.73938482  0.73026852    -0.59100
C2206       C  0.59581717  0.68667039  0.81317710     0.74700
C2207       C  0.62594084  0.67124890  0.73190079     0.77100
Cd2208     Cd  0.59621406  0.69511021  0.75366721     1.37500
O2209       O  0.54758762  0.66280821  0.75032910    -0.57900
O2210       O  0.60100003  0.65741179  0.73787975    -0.56700
C2211       C  0.61713774  0.75189358  0.75240212     0.77100
O2212       O  0.63641264  0.69648455  0.73263008    -0.59100
O2213       O  0.56247212  0.69667172  0.72245418    -0.57500
O2214       O  0.61739400  0.69881921  0.79888487    -0.57500
O2215       O  0.61043478  0.73829435  0.77482637    -0.56700
O2216       O  0.57617009  0.88368581  0.70579830    -0.57900
C2217       C  0.54586706  0.84961121  0.77289883     0.74700
O2218       O  0.62019011  0.86522229  0.77472266    -0.59100
C2219       C  0.59756393  0.89475072  0.69105289     0.74700
C2220       C  0.62541437  0.94187643  0.77175534     0.77100
Cd2221     Cd  0.59894815  0.88694597  0.75041676     1.37500
O2222       O  0.55017026  0.86632402  0.75360810    -0.57900
O2223       O  0.60012644  0.92576871  0.77279574    -0.56700
C2224       C  0.61900488  0.85138439  0.75362924     0.77100
O2225       O  0.63891763  0.93161989  0.76376579    -0.59100
O2226       O  0.56648369  0.85089465  0.78336620    -0.57500
O2227       O  0.61932057  0.90245139  0.70405212    -0.57500
O2228       O  0.61104427  0.85620075  0.73104132    -0.56700
C2229       C  0.46487272  0.63654109  0.72606649     0.86400
C2230       C  0.46706637  0.64004572  0.69405809    -0.53800
C2231       C  0.48766061  0.66450616  0.68491500     0.09300
C2232       C  0.50524145  0.68342269  0.70875575     0.20300
C2233       C  0.49302989  0.64207711  0.73418110    -0.54600
C2234       C  0.51412867  0.66646550  0.72521378     0.09400
C2235       C  0.46481660  0.66091199  0.73789307    -0.54100
C2236       C  0.48512898  0.68554155  0.72864700     0.10000
H2237       H  0.45344760  0.62430370  0.67972586     0.14500
H2238       H  0.52225872  0.70313528  0.70122767     0.00300
H2239       H  0.49674594  0.62842286  0.74576150     0.14800
H2240       H  0.44990244  0.65853212  0.75333306     0.14600
C2241       C  0.46893078  0.80793022  0.78131007     0.86400
C2242       C  0.47008654  0.80501347  0.81336885    -0.53800
C2243       C  0.49119561  0.80277514  0.82229486     0.09300
C2244       C  0.50924440  0.80303061  0.79804394     0.20300
C2245       C  0.49688362  0.83197520  0.77391818    -0.54600
C2246       C  0.51796885  0.82944555  0.78183570     0.09400
C2247       C  0.46865618  0.78332694  0.76971129    -0.54100
C2248       C  0.48950371  0.78020162  0.77784853     0.10000
H2249       H  0.45605219  0.80490197  0.82844589     0.14500
H2250       H  0.52622701  0.80132978  0.80567588     0.00300
H2251       H  0.49964484  0.84925517  0.76225579     0.14800
H2252       H  0.45321045  0.76992219  0.75503333     0.14600
C2253       C  0.20650763  0.64030802  0.77618075     0.86400
C2254       C  0.20945476  0.64353422  0.80805756    -0.53800
C2255       C  0.20986950  0.66558059  0.81845368     0.09300
C2256       C  0.20706184  0.68278525  0.79577944     0.20300
C2257       C  0.18131482  0.64136608  0.76894358    -0.54600
C2258       C  0.18122290  0.66313851  0.77938583     0.09400
C2259       C  0.22988952  0.66765221  0.76477778    -0.54100
C2260       C  0.23032529  0.68987103  0.77491955     0.10000
H2261       H  0.21170616  0.62975719  0.82139889     0.14500
H2262       H  0.20691452  0.70049634  0.80399544     0.00300
H2263       H  0.16559063  0.62689116  0.75514159     0.14800
H2264       H  0.24473806  0.67013427  0.74935902     0.14600
C2265       C  0.37571447  0.81039723  0.73231938     0.86400
C2266       C  0.37282896  0.80811702  0.70004707    -0.53800
C2267       C  0.34980899  0.80607175  0.69004999     0.09300
C2268       C  0.33202580  0.80767829  0.71309149     0.20300
C2269       C  0.37378149  0.83507369  0.73924276    -0.54600
C2270       C  0.35098346  0.83368377  0.72956389     0.09400
C2271       C  0.34888018  0.78591211  0.74289500    -0.54100
C2272       C  0.32608386  0.78465022  0.73333965     0.10000
H2273       H  0.38668535  0.80715139  0.68560459     0.14500
H2274       H  0.31352798  0.80662536  0.70525635     0.00300
H2275       H  0.38869405  0.85170022  0.75189686     0.14800
H2276       H  0.34800324  0.77097608  0.75718665     0.14600
O2277       O  0.34165081  0.88422372  0.80663731    -0.57900
C2278       C  0.34337063  0.85329910  0.73798273     0.74700
O2279       O  0.28016171  0.86033435  0.73580199    -0.59100
C2280       C  0.33013880  0.89403346  0.82047641     0.74700
C2281       C  0.34485071  0.93952469  0.73773585     0.77100
Cd2282     Cd  0.32336316  0.88576735  0.76074466     1.37500
O2283       O  0.35618008  0.87088788  0.75663129    -0.57900
O2284       O  0.35986502  0.93020027  0.74225623    -0.56700
C2285       C  0.26700933  0.84512921  0.75625584     0.77100
O2286       O  0.31982219  0.92317107  0.74153565    -0.59100
O2287       O  0.32282009  0.85245003  0.72802405    -0.57500
O2288       O  0.31618973  0.90072597  0.80640471    -0.57500
O2289       O  0.27950266  0.85033708  0.77924530    -0.56700
O2290       O  0.12323482  0.66351267  0.70401510    -0.57900
C2291       C  0.16046702  0.66933271  0.77120061     0.74700
O2292       O  0.15053862  0.73065930  0.77203707    -0.59100
C2293       C  0.11718537  0.67740169  0.68892412     0.74700
C2294       C  0.07022104  0.66348282  0.76904904     0.77100
Cd2295     Cd  0.12562238  0.68643576  0.74836779     1.37500
O2296       O  0.14357880  0.65637086  0.75203072    -0.57900
O2297       O  0.08122932  0.64965970  0.76727686    -0.56700
C2298       C  0.16579728  0.74304546  0.75127022     0.77100
O2299       O  0.08580614  0.68835514  0.76433607    -0.59100
O2300       O  0.15945877  0.68863709  0.78190526    -0.57500
O2301       O  0.11472105  0.69506055  0.70165020    -0.57500
O2302       O  0.16085000  0.72946696  0.72900782    -0.56700
O2303       O  0.12546435  0.43076163  0.80186039    -0.57900
C2304       C  0.15285715  0.46290028  0.73615007     0.74700
O2305       O  0.14272502  0.39184549  0.73201210    -0.59100
C2306       C  0.11021955  0.40948196  0.81567452     0.74700
C2307       C  0.06281003  0.38137249  0.73159874     0.77100
Cd2308     Cd  0.11656749  0.40880527  0.75595864     1.37500
O2309       O  0.13404276  0.45742114  0.75345694    -0.57900
O2310       O  0.07522880  0.40575839  0.73905972    -0.56700
C2311       C  0.15144379  0.38746504  0.75445734     0.77100
O2312       O  0.07624930  0.36996878  0.73311102    -0.59100
O2313       O  0.15347760  0.44313361  0.72611166    -0.57500
O2314       O  0.09689498  0.38820976  0.80142747    -0.57500
O2315       O  0.14179949  0.39055566  0.77690411    -0.56700
O2316       O  0.34203821  0.45814357  0.74989436    -0.57900
C2317       C  0.31642235  0.40979815  0.68710622     0.74700
O2318       O  0.30677378  0.36857571  0.76423807    -0.59100
C2319       C  0.33028664  0.46311530  0.76925229     0.74700
C2320       C  0.25135995  0.38950829  0.74921312     0.77100
Cd2321     Cd  0.30853483  0.40956130  0.74675140     1.37500
O2322       O  0.32519540  0.43134752  0.70087465    -0.57900
O2323       O  0.26538900  0.39844984  0.72712472    -0.56700
C2324       C  0.33196472  0.37935816  0.76754833     0.77100
O2325       O  0.26366451  0.38856924  0.77066709    -0.59100
O2326       O  0.30464501  0.38824202  0.70121836    -0.57500
O2327       O  0.30954942  0.44300558  0.78000891    -0.57500
O2328       O  0.34587256  0.40462687  0.76423424    -0.56700
C2329       C  0.36537868  0.54023199  0.77299472     0.86400
C2330       C  0.36405554  0.54088849  0.80513491    -0.53800
C2331       C  0.34158250  0.51931337  0.81691679     0.09300
C2332       C  0.32209240  0.49857312  0.79534407     0.20300
C2333       C  0.36178958  0.51280754  0.76581692    -0.54600
C2334       C  0.33943830  0.49107774  0.77753843     0.09400
C2335       C  0.33813418  0.53690172  0.76411309    -0.54100
C2336       C  0.31573518  0.51494509  0.77505247     0.10000
H2337       H  0.37936628  0.55735657  0.81759450     0.14500
H2338       H  0.30373569  0.48104496  0.80472241     0.00300
H2339       H  0.37496788  0.51070959  0.75117178     0.14800
H2340       H  0.33542971  0.55010843  0.75059645     0.14600
C2341       C  0.19963392  0.54028589  0.73336860     0.86400
C2342       C  0.20355795  0.53995143  0.70151363    -0.53800
C2343       C  0.20473919  0.51848298  0.69196336     0.09300
C2344       C  0.20087214  0.49838788  0.71513415     0.20300
C2345       C  0.17322566  0.51272620  0.73893102    -0.54600
C2346       C  0.17404835  0.49096284  0.72947309     0.09400
C2347       C  0.22166496  0.53681763  0.74656667    -0.54100
C2348       C  0.22228926  0.51495027  0.73752248     0.10000
H2349       H  0.20414411  0.55482244  0.68737920     0.14500
H2350       H  0.20158015  0.48078304  0.70740608     0.00300
H2351       H  0.15538067  0.50983095  0.74954188     0.14800
H2352       H  0.23546271  0.55044470  0.76234315     0.14600
C2353       C  0.25757424  0.50376194  0.72935684    -0.20400
C2354       C  0.24214335  0.50840702  0.74860837    -0.07000
C2355       C  0.24806303  0.50962004  0.77761097     0.13900
C2356       C  0.27137890  0.50992061  0.78605553    -0.20400
C2357       C  0.28831188  0.50808080  0.76639761    -0.07000
C2358       C  0.28049735  0.50339468  0.73792106     0.13900
C2359       C  0.29646670  0.49827229  0.71644625    -0.23800
H2360       H  0.25266074  0.50202182  0.70728850     0.15200
H2361       H  0.27685691  0.51256691  0.80799872     0.15200
C2362       C  0.23024456  0.51043937  0.80021645    -0.23700
H2363       H  0.28659975  0.49344022  0.69562041     0.05400
H2364       H  0.29805301  0.48092339  0.72320635     0.08700
H2365       H  0.31704816  0.51625499  0.71381301     0.08700
H2366       H  0.21099902  0.50736754  0.79203249     0.08600
H2367       H  0.24130914  0.53004797  0.81129833     0.08600
H2368       H  0.22477448  0.49400405  0.81553727     0.05400
C2369       C  0.21140384  0.38191706  0.77655650    -0.20400
C2370       C  0.22275161  0.38253046  0.75031457    -0.07000
C2371       C  0.20752764  0.37927503  0.72588221     0.13900
C2372       C  0.18302781  0.37853932  0.72830357    -0.20400
C2373       C  0.17332893  0.38128748  0.75432347    -0.07000
C2374       C  0.18703981  0.38149703  0.77898981     0.21100
C2375       C  0.17713911  0.38252571  0.80800536    -0.23800
H2376       H  0.22255931  0.38360452  0.79535337     0.15200
H2377       H  0.17219535  0.37739390  0.70943179     0.15200
C2378       C  0.21695505  0.37708905  0.69702225    -0.23700
H2379       H  0.18984779  0.38132738  0.82455007     0.05400
H2380       H  0.15615284  0.36523620  0.81111160     0.08700
H2381       H  0.17790002  0.40179242  0.81105770     0.08700
H2382       H  0.22152557  0.36081676  0.69675664     0.08600
H2383       H  0.23514542  0.39651302  0.69075875     0.08600
H2384       H  0.20127540  0.37217388  0.68095063     0.05400
C2385       C  0.22329578  0.81091063  0.77801715    -0.20400
C2386       C  0.23903845  0.82153879  0.75358045    -0.07000
C2387       C  0.22894169  0.80759432  0.72800066     0.13900
C2388       C  0.20417320  0.78293625  0.72791455    -0.20400
C2389       C  0.18921499  0.77134724  0.75266806    -0.07000
C2390       C  0.19861768  0.78606361  0.77800022     0.13900
C2391       C  0.18351247  0.77559824  0.80535510    -0.23800
H2392       H  0.23086329  0.82168754  0.79758191     0.15200
H2393       H  0.19705240  0.77206007  0.70835532     0.15200
C2394       C  0.24467989  0.81755535  0.70089258    -0.23700
H2395       H  0.19368736  0.79012879  0.82271373     0.05400
H2396       H  0.18239517  0.75662696  0.81128915     0.08700
H2397       H  0.16283182  0.77204938  0.80338911     0.08700
H2398       H  0.26455384  0.81921655  0.70301550     0.08600
H2399       H  0.24772189  0.83744902  0.69531569     0.08600
H2400       H  0.23390813  0.80366099  0.68322090     0.05400
C2401       C  0.18133785  0.56497749  0.76196048    -0.20400
C2402       C  0.20149426  0.56632898  0.74411550    -0.07000
C2403       C  0.22457734  0.59240250  0.73860188     0.13900
C2404       C  0.22565647  0.61544551  0.74932366    -0.20400
C2405       C  0.20477742  0.61419119  0.76583184    -0.07000
C2406       C  0.18275455  0.58805150  0.77319956     0.13900
C2407       C  0.16064872  0.58357492  0.79363761    -0.23800
H2408       H  0.16444639  0.54579828  0.76837031     0.15200
H2409       H  0.24375702  0.63445733  0.74502603     0.15200
C2410       C  0.24889233  0.59687966  0.72178529    -0.23700
H2411       H  0.14594012  0.56182996  0.79744323     0.05400
H2412       H  0.14873981  0.59196275  0.78561383     0.08700
H2413       H  0.16925899  0.59243935  0.81429196     0.08700
H2414       H  0.24346103  0.59076448  0.69974309     0.08600
H2415       H  0.25792588  0.58603368  0.73110809     0.08600
H2416       H  0.26526995  0.61845130  0.72110097     0.05400
C2417       C  0.25576247  0.72132247  0.73570203    -0.20400
C2418       C  0.25117985  0.71747617  0.76476064    -0.07000
C2419       C  0.26927007  0.73828749  0.78295801     0.13900
C2420       C  0.29290563  0.76067234  0.77184124    -0.20400
C2421       C  0.29857883  0.76324113  0.74298620    -0.07000
C2422       C  0.27910866  0.74391608  0.72457997     0.13900
C2423       C  0.28356909  0.74587439  0.69338856    -0.23800
H2424       H  0.24161023  0.70572420  0.72164029     0.15200
H2425       H  0.30758235  0.77591024  0.78585596     0.15200
C2426       C  0.26467633  0.73665362  0.81411632    -0.23700
H2427       H  0.26664144  0.72853876  0.68227352     0.05400
H2428       H  0.30225974  0.74597206  0.68853197     0.08700
H2429       H  0.28521944  0.76446984  0.68520813     0.08700
H2430       H  0.26297827  0.71815787  0.82246329     0.08600
H2431       H  0.24601295  0.73671976  0.81898826     0.08600
H2432       H  0.28160480  0.75408906  0.82511908     0.05400
C2433       C  0.42612163  0.81064597  0.78592426    -0.20400
C2434       C  0.44587572  0.81049609  0.76869419    -0.07000
C2435       C  0.44341003  0.81241499  0.73919529     0.13900
C2436       C  0.42142053  0.81327865  0.72842648    -0.20400
C2437       C  0.40078788  0.81183546  0.74550432    -0.07000
C2438       C  0.40407045  0.81149406  0.77505579     0.13900
C2439       C  0.38499184  0.81190713  0.79652406    -0.23800
H2440       H  0.42730712  0.81011177  0.80836124     0.15200
H2441       H  0.42118440  0.81531877  0.70609420     0.15200
C2442       C  0.46307822  0.81336707  0.71747919    -0.23700
H2443       H  0.39653284  0.82949309  0.81055605     0.05400
H2444       H  0.37586251  0.79323597  0.80935258     0.08700
H2445       H  0.36832877  0.81346715  0.78778784     0.08700
H2446       H  0.48027731  0.81249685  0.72573680     0.08600
H2447       H  0.47166731  0.83232967  0.70521531     0.08600
H2448       H  0.45209617  0.79609398  0.70294187     0.05400
C2449       C  0.44102880  0.59251521  0.75494417    -0.20400
C2450       C  0.43929689  0.61022539  0.73611577    -0.07000
C2451       C  0.41287930  0.60399327  0.72871240     0.13900
C2452       C  0.39006641  0.58127142  0.74012583    -0.20400
C2453       C  0.39158627  0.56426704  0.76003306    -0.07000
C2454       C  0.41796345  0.57000237  0.76698596     0.13900
C2455       C  0.42263636  0.55281381  0.78714866    -0.23800
H2456       H  0.46042928  0.59629989  0.76137585     0.15200
H2457       H  0.37103804  0.57759828  0.73271987     0.15200
C2458       C  0.40681757  0.62063526  0.70920846    -0.23700
H2459       H  0.44448247  0.56021360  0.78942053     0.05400
H2460       H  0.41289828  0.53182340  0.77960246     0.08700
H2461       H  0.41507084  0.55313013  0.80836395     0.08700
H2462       H  0.39491980  0.60807626  0.69114473     0.08600
H2463       H  0.42452257  0.63882839  0.70063443     0.08600
H2464       H  0.39457925  0.62730530  0.72059031     0.05400
C2465       C  0.51250282  0.73409808  0.74513216    -0.20400
C2466       C  0.48719082  0.71105679  0.73894159    -0.07000
C2467       C  0.46370036  0.71173035  0.74559927     0.13900
C2468       C  0.46579789  0.73260977  0.76190534    -0.20400
C2469       C  0.49076072  0.75633498  0.76715371    -0.07000
C2470       C  0.51463771  0.75712116  0.75809571     0.13900
C2471       C  0.54233027  0.78196436  0.76113651    -0.23800
H2472       H  0.53072361  0.73413978  0.73990807     0.15200
H2473       H  0.44714222  0.73096797  0.76873175     0.15200
C2474       C  0.43609305  0.69220101  0.73389078    -0.23700
H2475       H  0.55802956  0.77979082  0.75015889     0.05400
H2476       H  0.54806708  0.78554213  0.78349235     0.08700
H2477       H  0.54268675  0.79960878  0.75189388     0.08700
H2478       H  0.43689378  0.67984870  0.71686955     0.08600
H2479       H  0.42755480  0.70353949  0.72437734     0.08600
H2480       H  0.42225462  0.67911101  0.75083434     0.05400
C2481       C  0.62933979  0.82012235  0.72954208    -0.20400
C2482       C  0.62472028  0.82938139  0.75492166    -0.07000
C2483       C  0.62163754  0.81488584  0.77983091     0.13900
C2484       C  0.62173156  0.79090581  0.77833048    -0.20400
C2485       C  0.62367801  0.78023972  0.75256671    -0.07000
C2486       C  0.62853501  0.79565965  0.72788743     0.13900
C2487       C  0.63178629  0.78626198  0.69951398    -0.23800
H2488       H  0.63207365  0.83137513  0.71046790     0.15200
H2489       H  0.61844943  0.77952016  0.79742117     0.15200
C2490       C  0.61630676  0.82328548  0.80783735    -0.23700
H2491       H  0.63643460  0.80147597  0.68293210     0.05400
H2492       H  0.61273597  0.76759219  0.69350888     0.08700
H2493       H  0.64871127  0.78256682  0.69995688     0.08700
H2494       H  0.59727358  0.82346390  0.80704038     0.08600
H2495       H  0.63348070  0.84359041  0.81339960     0.08600
H2496       H  0.61399802  0.80924306  0.82486628     0.05400
C2497       C  0.47873697  0.67690012  0.60878583    -0.20400
C2498       C  0.49354104  0.66727073  0.59522245    -0.07000
C2499       C  0.50947017  0.66047151  0.61143814     0.13900
C2500       C  0.50901903  0.66212814  0.64080953    -0.20400
C2501       C  0.49295524  0.67022837  0.65443852    -0.07000
C2502       C  0.47828884  0.67852624  0.63816812     0.13900
C2503       C  0.46129589  0.68833202  0.65119094    -0.23800
H2504       H  0.46651344  0.68212458  0.59640988     0.15200
H2505       H  0.52008282  0.65552708  0.65324434     0.15200
C2506       C  0.52616345  0.65019158  0.59865799    -0.23700
H2507       H  0.46805675  0.70878807  0.64311755     0.05400
H2508       H  0.46293005  0.68963178  0.67429212     0.08700
H2509       H  0.43973634  0.67448998  0.64564172     0.08700
H2510       H  0.52505702  0.64911977  0.57555977     0.08600
H2511       H  0.51900436  0.62965204  0.60674777     0.08600
H2512       H  0.54770039  0.66374227  0.60447658     0.05400
C2513       C  0.57084401  0.67236588  0.85849281    -0.20400
C2514       C  0.59571714  0.68370007  0.84414937    -0.07000
C2515       C  0.61965602  0.69286824  0.85986584     0.13900
C2516       C  0.61810485  0.69177173  0.88919695    -0.20400
C2517       C  0.59347243  0.68195709  0.90355974    -0.07000
C2518       C  0.56932849  0.67137361  0.88787247     0.13900
C2519       C  0.54192350  0.65975081  0.90159807    -0.23800
H2520       H  0.55238586  0.66489793  0.84666354     0.15200
H2521       H  0.63656318  0.69934002  0.90105584     0.15200
C2522       C  0.64710290  0.70423105  0.84629819    -0.23700
H2523       H  0.52549188  0.65268129  0.88594931     0.05400
H2524       H  0.54149509  0.67531268  0.91462967     0.08700
H2525       H  0.53742171  0.64216596  0.91476078     0.08700
H2526       H  0.65280682  0.72303742  0.83478954     0.08600
H2527       H  0.64680084  0.68917287  0.83179241     0.08600
H2528       H  0.66316537  0.70936944  0.86196468     0.05400
C2529       C  0.61861371  0.91369231  0.61468602    -0.20400
C2530       C  0.59449285  0.89553555  0.60087550    -0.07000
C2531       C  0.57076979  0.87920630  0.61703032     0.13900
C2532       C  0.57232923  0.88039107  0.64637048    -0.20400
C2533       C  0.59687506  0.89726267  0.66016083    -0.07000
C2534       C  0.62015202  0.91490649  0.64401861     0.13900
C2535       C  0.64670172  0.93522101  0.65727567    -0.23800
H2536       H  0.63664775  0.92669433  0.60241449     0.15200
H2537       H  0.55435966  0.86716256  0.65862188     0.15200
C2538       C  0.54393029  0.85959688  0.60382204    -0.23700
H2539       H  0.66191319  0.94860883  0.64139769     0.05400
H2540       H  0.65533402  0.92480582  0.66853098     0.08700
H2541       H  0.64359282  0.94814093  0.67200419     0.08700
H2542       H  0.54577058  0.84472356  0.59099376     0.08600
H2543       H  0.53722706  0.87062549  0.59053935     0.08600
H2544       H  0.52786628  0.84819553  0.61977813     0.05400
C2545       C  0.62550954  0.79257168  0.97844025    -0.20400
C2546       C  0.62416504  0.77760517  0.50842576    -0.07000
C2547       C  0.61824425  0.78655778  0.53352213     0.13900
C2548       C  0.61842937  0.81074247  0.53338179    -0.20400
C2549       C  0.62361062  0.82608238  0.50879398    -0.07000
C2550       C  0.62598846  0.81691669  0.97872962     0.13900
C2551       C  0.62773775  0.83026111  0.95109237    -0.23800
H2552       H  0.62628643  0.78415439  0.95845987     0.15200
H2553       H  0.61294157  0.81688361  0.55246111     0.15200
C2554       C  0.61015118  0.77023196  0.56021388    -0.23700
H2555       H  0.63010216  0.81944195  0.93320348     0.05400
H2556       H  0.64554206  0.85115498  0.95095981     0.08700
H2557       H  0.60893504  0.83042609  0.94753770     0.08700
H2558       H  0.62663721  0.76716115  0.56690638     0.08600
H2559       H  0.59124668  0.75047720  0.55693455     0.08600
H2560       H  0.60626870  0.78045754  0.57762335     0.05400
C2561       C  0.47369221  0.77828080  0.86740669    -0.20400
C2562       C  0.49495823  0.80027578  0.85293087    -0.07000
C2563       C  0.51633346  0.82116910  0.86872497     0.13900
C2564       C  0.51477132  0.82038087  0.89821874    -0.20400
C2565       C  0.49229245  0.79957626  0.91238830    -0.07000
C2566       C  0.47213040  0.77764047  0.89684678     0.13900
C2567       C  0.44883578  0.75360768  0.91129013    -0.23800
H2568       H  0.45745351  0.76209853  0.85550172     0.15200
H2569       H  0.53038772  0.83709318  0.91016819     0.15200
C2570       C  0.54025767  0.84548797  0.85555126    -0.23700
H2571       H  0.43547099  0.73782506  0.89608503     0.05400
H2572       H  0.43631084  0.75961899  0.92308750     0.08700
H2573       H  0.45678510  0.74466215  0.92597727     0.08700
H2574       H  0.54087284  0.86398029  0.86253459     0.08600
H2575       H  0.53971258  0.84510020  0.83253296     0.08600
H2576       H  0.55917092  0.84667108  0.86214680     0.05400
C2577       C  0.51189225  0.75559454  0.49652099    -0.20400
C2578       C  0.48653113  0.75657711  0.99537645    -0.07000
C2579       C  0.46258902  0.73105606  0.99926028     0.13900
C2580       C  0.46407632  0.71000913  0.01135480    -0.20400
C2581       C  0.48917244  0.70872442  0.51273964    -0.07000
C2582       C  0.51339662  0.73336099  0.50588848     0.13900
C2583       C  0.54084045  0.73649237  0.50710408    -0.23800
H2584       H  0.53042551  0.77477425  0.49300983     0.15200
H2585       H  0.44518133  0.69146213  0.01580815     0.15200
C2586       C  0.43509881  0.72410835  0.98893530    -0.23700
H2587       H  0.55657654  0.75542905  0.49677753     0.05400
H2588       H  0.54049489  0.71953998  0.49607851     0.08700
H2589       H  0.54717518  0.73765121  0.52911792     0.08700
H2590       H  0.42602898  0.70529735  0.97641983     0.08600
H2591       H  0.43585055  0.73948971  0.97476968     0.08600
H2592       H  0.42156950  0.72077444  0.00703628     0.05400
C2593       C  0.23314661  0.67261542  0.89384510    -0.20400
C2594       C  0.21140638  0.67139159  0.90828110    -0.07000
C2595       C  0.19118746  0.67234836  0.89284769     0.13900
C2596       C  0.19237372  0.67271646  0.86331434    -0.20400
C2597       C  0.21303902  0.67172722  0.84896272    -0.07000
C2598       C  0.23437025  0.67293698  0.86452884     0.13900
C2599       C  0.25860246  0.67416461  0.85108902    -0.23800
H2600       H  0.24884408  0.67217536  0.90560952     0.15200
H2601       H  0.17614346  0.67194910  0.85139525     0.15200
C2602       C  0.16744909  0.67115764  0.90727793    -0.23700
H2603       H  0.27737246  0.69229184  0.85869922     0.05400
H2604       H  0.25879288  0.67551035  0.82795007     0.08700
H2605       H  0.25904836  0.65597252  0.85695635     0.08700
H2606       H  0.17463580  0.68917236  0.92066455     0.08600
H2607       H  0.15650971  0.65266468  0.92032872     0.08600
H2608       H  0.15291323  0.67083157  0.89201597     0.05400
C2609       C  0.33712773  0.81932679  0.64574680    -0.20400
C2610       C  0.34274417  0.80160626  0.65973363    -0.07000
C2611       C  0.34416371  0.78172160  0.64395529     0.13900
C2612       C  0.34234568  0.78173382  0.61475010    -0.20400
C2613       C  0.33934309  0.80103548  0.60049470    -0.07000
C2614       C  0.33565238  0.81946361  0.61624539     0.13900
C2615       C  0.33200596  0.84042174  0.60213539    -0.23800
H2616       H  0.33568555  0.83430063  0.65780793     0.15200
H2617       H  0.34471358  0.76725223  0.60277601     0.15200
C2618       C  0.34803150  0.76030861  0.65680308    -0.23700
H2619       H  0.33067647  0.85395016  0.61758646     0.05400
H2620       H  0.31299162  0.83050179  0.58996177     0.08700
H2621       H  0.34942701  0.85301544  0.58798553     0.08700
H2622       H  0.34752670  0.76010423  0.67996330     0.08600
H2623       H  0.36769797  0.76328818  0.64974350     0.08600
H2624       H  0.33153420  0.74014773  0.64982346     0.05400
C2625       C  0.41895939  0.81298114  0.53342403    -0.20400
C2626       C  0.39937624  0.81270944  0.51584442    -0.07000
C2627       C  0.40546719  0.81910927  0.98835080     0.13900
C2628       C  0.42769513  0.81800511  0.97811164    -0.20400
C2629       C  0.44528351  0.81495593  0.99584147    -0.07000
C2630       C  0.44102169  0.81181581  0.52312773     0.13900
C2631       C  0.45968035  0.81178415  0.54517842    -0.23800
H2632       H  0.41770506  0.81400800  0.55577415     0.15200
H2633       H  0.43110224  0.81994326  0.95586734     0.15200
C2634       C  0.38850651  0.82302519  0.96709605    -0.23700
H2635       H  0.46805478  0.83040911  0.55790330     0.05400
H2636       H  0.47703633  0.81091422  0.53713829     0.08700
H2637       H  0.44796904  0.79413113  0.55922726     0.08700
H2638       H  0.38988640  0.84248596  0.97048599     0.08600
H2639       H  0.36710061  0.80639867  0.96781410     0.08600
H2640       H  0.39565842  0.82364931  0.94531948     0.05400
C2641       C  0.29368923  0.75801514  0.98658328    -0.20400
C2642       C  0.29744166  0.75961717  0.51528102    -0.07000
C2643       C  0.27763493  0.73970925  0.53323530     0.13900
C2644       C  0.25509915  0.71678616  0.52159753    -0.20400
C2645       C  0.25244802  0.71405766  0.99297241    -0.07000
C2646       C  0.27138019  0.73474664  0.97499746     0.13900
C2647       C  0.26924960  0.73168067  0.94364199    -0.23800
H2648       H  0.30859022  0.77354162  0.97277640     0.15200
H2649       H  0.24036843  0.70108772  0.53537653     0.15200
C2650       C  0.28101442  0.74156276  0.56456975    -0.23700
H2651       H  0.28652589  0.74914390  0.93281986     0.05400
H2652       H  0.25044956  0.73023226  0.93631405     0.08700
H2653       H  0.26921080  0.71330293  0.93746213     0.08700
H2654       H  0.28093936  0.75937903  0.57257143     0.08600
H2655       H  0.30035408  0.74317565  0.57015639     0.08600
H2656       H  0.26435189  0.72352217  0.57531583     0.05400
C2657       C  0.33996460  0.88042163  0.86582116    -0.20400
C2658       C  0.33190898  0.89610881  0.85151201    -0.07000
C2659       C  0.32460030  0.91202480  0.86723249     0.13900
C2660       C  0.32421763  0.91062583  0.89658708    -0.20400
C2661       C  0.33082851  0.89377535  0.91085525    -0.07000
C2662       C  0.33943929  0.87889701  0.89515939     0.13900
C2663       C  0.34719985  0.86055669  0.90878507    -0.23800
H2664       H  0.34581403  0.86839229  0.85393362     0.15200
H2665       H  0.31814357  0.92246919  0.90849244     0.15200
C2666       C  0.31725077  0.93063835  0.85353649    -0.23700
H2667       H  0.35287471  0.85024065  0.89309788     0.05400
H2668       H  0.32988036  0.84472294  0.92116168     0.08700
H2669       H  0.36493728  0.87242353  0.92255713     0.08700
H2670       H  0.29825328  0.91882094  0.84152204     0.08600
H2671       H  0.33391741  0.94493486  0.83941246     0.08600
H2672       H  0.31383886  0.94268798  0.86920107     0.05400
C2673       C  0.11907872  0.65794960  0.61281500    -0.20400
C2674       C  0.11187257  0.67439482  0.59866763    -0.07000
C2675       C  0.10401225  0.68978579  0.61457798     0.13900
C2676       C  0.10495175  0.68925411  0.64388766    -0.20400
C2677       C  0.11374781  0.67408642  0.65802725    -0.07000
C2678       C  0.12021301  0.65758710  0.64216343     0.13900
C2679       C  0.12905395  0.64004909  0.65560450    -0.23800
H2680       H  0.12466636  0.64578882  0.60078361     0.15200
H2681       H  0.09946670  0.70153200  0.65584539     0.15200
C2682       C  0.09551228  0.70765440  0.60120555    -0.23700
H2683       H  0.13309405  0.62852830  0.63983573     0.05400
H2684       H  0.11290073  0.62522910  0.66985250     0.08700
H2685       H  0.14804017  0.65269752  0.66742786     0.08700
H2686       H  0.07731190  0.69536874  0.58814446     0.08600
H2687       H  0.11231250  0.72335104  0.58818930     0.08600
H2688       H  0.09026661  0.71819372  0.61704996     0.05400
C2689       C  0.22006334  0.80980098  0.48183552    -0.20400
C2690       C  0.23364878  0.82080122  0.50715822    -0.07000
C2691       C  0.22103132  0.80762504  0.53260496     0.13900
C2692       C  0.19647741  0.78276384  0.53170580    -0.20400
C2693       C  0.18432602  0.77041074  0.50615412    -0.07000
C2694       C  0.19576096  0.78476680  0.48088635     0.13900
C2695       C  0.18355560  0.77350902  0.45264351    -0.23800
H2696       H  0.22929795  0.82018686  0.46233936     0.15200
H2697       H  0.18747149  0.77221015  0.55118510     0.15200
C2698       C  0.23378011  0.81862808  0.56072418    -0.23700
H2699       H  0.19521486  0.78776708  0.43536835     0.05400
H2700       H  0.16261805  0.76945323  0.45191564     0.08700
H2701       H  0.18353072  0.75220079  0.94698695     0.08700
H2702       H  0.23672311  0.83887743  0.56381534     0.08600
H2703       H  0.25061985  0.81972976  0.06043555     0.08600
H2704       H  0.22089673  0.80558910  0.57823774     0.05400
C2705       C  0.33621593  0.49541092  0.86201169    -0.20400
C2706       C  0.33680455  0.51675889  0.84775744    -0.07000
C2707       C  0.33475121  0.53630386  0.86330644     0.13900
C2708       C  0.33419066  0.53510939  0.89272327    -0.20400
C2709       C  0.33525519  0.51469165  0.90709878    -0.07000
C2710       C  0.33559396  0.49419566  0.89152236     0.13900
C2711       C  0.33685034  0.47188995  0.90586453    -0.23800
H2712       H  0.33752946  0.48032297  0.85002224     0.15200
H2713       H  0.33374558  0.55070638  0.90466091     0.15200
C2714       C  0.33292124  0.55834913  0.84900540    -0.23700
H2715       H  0.33822713  0.45829058  0.89054991     0.05400
H2716       H  0.31830128  0.45957429  0.91862935     0.08700
H2717       H  0.35490822  0.48050692  0.91953263     0.08700
H2718       H  0.31563658  0.54937564  0.83430016     0.08600
H2719       H  0.35183010  0.57197484  0.83730187     0.08600
H2720       H  0.32972512  0.57080499  0.86431375     0.05400
C2721       C  0.39068149  0.58097737  0.51016719    -0.20400
C2722       C  0.39089609  0.56335234  0.99258866    -0.07000
C2723       C  0.41700856  0.56831918  0.98524393     0.13900
C2724       C  0.44094560  0.58957291  0.49544168    -0.20400
C2725       C  0.44000160  0.60790960  0.51400976    -0.07000
C2726       C  0.41398530  0.60303945  0.52154310     0.13900
C2727       C  0.40972456  0.62084324  0.54152347    -0.23800
H2728       H  0.37198324  0.57902667  0.51617088     0.15200
H2729       H  0.46012413  0.59262223  0.48887526     0.15200
C2730       C  0.42095642  0.54995185  0.96599720    -0.23700
H2731       H  0.38807852  0.61443906  0.54349836     0.05400
H2732       H  0.42036259  0.64198248  0.53427436     0.08700
H2733       H  0.41621098  0.61974822  0.56293944     0.08700
H2734       H  0.41189695  0.54840453  0.94524196     0.08600
H2735       H  0.41223785  0.52967391  0.97530602     0.08600
H2736       H  0.44270943  0.55758585  0.96216478     0.05400
C2737       C  0.22929482  0.53298588  0.61649006    -0.20400
C2738       C  0.20622229  0.51341009  0.60216798    -0.07000
C2739       C  0.18416387  0.49304870  0.61778058     0.13900
C2740       C  0.18504496  0.49385365  0.64732225    -0.20400
C2741       C  0.20738631  0.51463487  0.66153238    -0.07000
C2742       C  0.23028235  0.53367577  0.64588213     0.13900
C2743       C  0.25593542  0.55520527  0.65957215    -0.23800
H2744       H  0.24637213  0.54849352  0.60461511     0.15200
H2745       H  0.16754716  0.47920433  0.65935165     0.15200
C2746       C  0.15901506  0.47154422  0.60342364    -0.23700
H2747       H  0.27319582  0.55361466  0.65203981     0.05400
H2748       H  0.25528305  0.55343253  0.68272021     0.08700
H2749       H  0.25970896  0.57536995  0.65391266     0.08700
H2750       H  0.16404154  0.45930875  0.58981392     0.08600
H2751       H  0.15027586  0.48094247  0.59050760     0.08600
H2752       H  0.14335983  0.45775713  0.61873759     0.05400
C2753       C  0.20156763  0.58483088  0.53407574    -0.20400
C2754       C  0.20267846  0.56568027  0.51699686    -0.07000
C2755       C  0.19938005  0.56853120  0.98558476     0.13900
C2756       C  0.20092715  0.59189145  0.97510638    -0.20400
C2757       C  0.20285350  0.61233556  0.99260577    -0.07000
C2758       C  0.20176024  0.60738156  0.52310524     0.13900
C2759       C  0.19993642  0.62601468  0.54400040    -0.23800
H2760       H  0.19985479  0.58226592  0.55642417     0.15200
H2761       H  0.20012416  0.59343306  0.95278054     0.15200
C2762       C  0.19692295  0.54804175  0.96425857    -0.23700
H2763       H  0.19880966  0.61914488  0.56592822     0.05400
H2764       H  0.18144292  0.62667079  0.54075754     0.08700
H2765       H  0.21797163  0.64658548  0.54291423     0.08700
H2766       H  0.17800189  0.52837817  0.96742290     0.08600
H2767       H  0.19999354  0.53124175  0.47445938     0.08600
H2768       H  0.19620802  0.55430605  0.94248167     0.05400
C2769       C  0.24654442  0.50855742  0.98530519    -0.20400
C2770       C  0.24472298  0.50872522  0.51563359    -0.07000
C2771       C  0.26186261  0.50412144  0.53248290     0.13900
C2772       C  0.28306214  0.50276115  0.51974973    -0.20400
C2773       C  0.28738911  0.50710284  0.99123572    -0.07000
C2774       C  0.26836966  0.50769635  0.97344573     0.13900
C2775       C  0.27204429  0.50940847  0.94211983    -0.23800
H2776       H  0.23247069  0.51001435  0.97169743     0.15200
H2777       H  0.29714973  0.50072591  0.53275633     0.15200
C2778       C  0.25943696  0.50282123  0.56395565    -0.23700
H2779       H  0.25580087  0.51068493  0.93143184     0.05400
H2780       H  0.27149860  0.49123488  0.93421615     0.08700
H2781       H  0.29171173  0.52764232  0.93646320     0.08700
H2782       H  0.23999974  0.48484519  0.57051183     0.08600
H2783       H  0.26071875  0.52130728  0.57205667     0.08600
H2784       H  0.27585669  0.50125316  0.57380072     0.05400
C2785       C  0.32374358  0.43322197  0.64172956    -0.20400
C2786       C  0.31888707  0.41006673  0.65611739    -0.07000
C2787       C  0.31548504  0.38778779  0.64052605     0.13900
C2788       C  0.31623300  0.38910068  0.61115229    -0.20400
C2789       C  0.32012704  0.41190559  0.59681115    -0.07000
C2790       C  0.32419107  0.43441195  0.61239105     0.13900
C2791       C  0.32771664  0.45931460  0.59850957    -0.23800
H2792       H  0.32630185  0.45030065  0.65351855     0.15200
H2793       H  0.31330371  0.37193168  0.59924648     0.15200
C2794       C  0.31114751  0.36256186  0.65439435    -0.23700
H2795       H  0.32937959  0.47428778  0.61406632     0.05400
H2796       H  0.31000045  0.45383261  0.58508499     0.08700
H2797       H  0.34652620  0.46922565  0.58568374     0.08700
H2798       H  0.29156533  0.35224962  0.66589803     0.08600
H2799       H  0.32797899  0.36772607  0.66903014     0.08600
H2800       H  0.31049000  0.34801972  0.63887439     0.05400
C2801       C  0.12189641  0.43479413  0.86041608    -0.20400
C2802       C  0.10892992  0.40972973  0.84678043    -0.07000
C2803       C  0.09660430  0.38589900  0.86319842     0.13900
C2804       C  0.09782364  0.38791095  0.89246894    -0.20400
C2805       C  0.11135646  0.41294288  0.90612137    -0.07000
C2806       C  0.12344663  0.43680375  0.88973154     0.13900
C2807       C  0.13822034  0.46452230  0.90259884    -0.23800
H2808       H  0.13136441  0.45311017  0.84801883     0.15200
H2809       H  0.08860833  0.36956179  0.90479292     0.15200
C2810       C  0.08277013  0.35815329  0.85040826    -0.23700
H2811       H  0.14563175  0.48065312  0.88649161     0.05400
H2812       H  0.15614471  0.46766403  0.91424858     0.08700
H2813       H  0.12443434  0.46688224  0.91689831     0.08700
H2814       H  0.09737378  0.35598686  0.83725298     0.08600
H2815       H  0.06535426  0.35475983  0.83760751     0.08600
H2816       H  0.07478867  0.34204781  0.86658713     0.05400
C2817       C  0.21438179  0.38280654  0.97567766    -0.20400
C2818       C  0.22466833  0.38358953  0.50490784    -0.07000
C2819       C  0.21126659  0.38458109  0.52950702     0.13900
C2820       C  0.18746765  0.38515488  0.52697892    -0.20400
C2821       C  0.17676033  0.38507262  0.50070373    -0.07000
C2822       C  0.19096031  0.38401336  0.97331081     0.13900
C2823       C  0.18161629  0.38550769  0.94430660    -0.23800
H2824       H  0.22535652  0.38384238  0.95679429     0.15200
H2825       H  0.17815522  0.38745540  0.54566381     0.15200
C2826       C  0.22217983  0.38620105  0.55852152    -0.23700
H2827       H  0.19345874  0.38267915  0.92776778     0.05400
H2828       H  0.18428377  0.40556792  0.94071158     0.08700
H2829       H  0.16005723  0.36941388  0.94169941     0.08700
H2830       H  0.24192543  0.40530746  0.56099978     0.08600
H2831       H  0.22449521  0.36870705  0.56222592     0.08600
H2832       H  0.20840278  0.38582227  0.57503138     0.05400
C2833       C  0.99585264  0.64313672  0.98008601    -0.20400
C2834       C  0.98083827  0.61482664  0.98123600    -0.07000
C2835       C  0.99494725  0.60103605  0.97861749     0.13900
C2836       C  0.02339149  0.61586394  0.97757251    -0.20400
C2837       C  0.03846499  0.64411819  0.97924943    -0.07000
C2838       C  0.02432805  0.65795754  0.97920457     0.13900
C2839       C  0.03879441  0.68827431  0.97954577    -0.23800
H2840       H  0.98530332  0.65391069  0.98135093     0.15200
H2841       H  0.03398215  0.60510681  0.97686476     0.15200
C2842       C  0.98058443  0.57072130  0.97786415    -0.23700
H2843       H  0.02444624  0.69545303  0.97887045     0.05400
H2844       H  0.05231411  0.69669554  0.96095645     0.08700
H2845       H  0.05213386  0.69654967  0.50811745     0.08700
H2846       H  0.96586537  0.56281097  0.96040512     0.08600
H2847       H  0.97201484  0.56275984  0.48909416     0.08600
H2848       H  0.99487452  0.56370314  0.97446869     0.05400
C2849       C  0.64225944  0.61192100  0.52699900    -0.20400
C2850       C  0.67014466  0.62624862  0.52094811    -0.07000
C2851       C  0.68355642  0.65451054  0.51690518     0.13900
C2852       C  0.66856516  0.66718793  0.51779609    -0.20400
C2853       C  0.64032719  0.65255624  0.52170658    -0.07000
C2854       C  0.62712624  0.62448666  0.52714011     0.13900
C2855       C  0.59704165  0.60722085  0.53226119    -0.23800
H2856       H  0.63187851  0.59035829  0.53038682     0.15200
H2857       H  0.67893757  0.68865230  0.51380141     0.15200
C2858       C  0.71334196  0.67148540  0.51004386    -0.23700
H2859       H  0.59060110  0.58607391  0.53732060     0.05400
H2860       H  0.58645000  0.60871268  0.01354283     0.08700
H2861       H  0.59121076  0.61528367  0.55022274     0.08700
H2862       H  0.72013109  0.66778855  0.99709497     0.08600
H2863       H  0.72529872  0.67014369  0.52731899     0.08600
H2864       H  0.72019276  0.69307333  0.50731071     0.05400
C2865       C  0.82591947  0.60025472  0.53013911    -0.20400
C2866       C  0.83976154  0.60140977  0.50533906    -0.07000
C2867       C  0.82765918  0.60297576  0.98013849     0.13900
C2868       C  0.80406160  0.60411134  0.98069118    -0.20400
C2869       C  0.79192493  0.60351352  0.50383954    -0.07000
C2870       C  0.80213645  0.60104595  0.52978526     0.13900
C2871       C  0.78744552  0.59761249  0.55710368    -0.23800
H2872       H  0.83299019  0.59735563  0.55000336     0.15200
H2873       H  0.79519903  0.60464557  0.96097920     0.15200
C2874       C  0.83955810  0.60260505  0.95209241    -0.23700
H2875       H  0.79830895  0.59570201  0.57516318     0.05400
H2876       H  0.76701792  0.57905836  0.55647781     0.08700
H2877       H  0.78568012  0.61542404  0.56094147     0.08700
H2878       H  0.83893107  0.58335663  0.94943906     0.08600
H2879       H  0.86075505  0.61984261  0.95054711     0.08600
H2880       H  0.82816811  0.60436066  0.93446063     0.05400
C2881       C  0.74559793  0.48126286  0.53413023    -0.20400
C2882       C  0.72846550  0.48310841  0.51503658    -0.07000
C2883       C  0.73243781  0.48340402  0.98139338     0.13900
C2884       C  0.75479481  0.48217275  0.97208056    -0.20400
C2885       C  0.77170162  0.47993029  0.99116943    -0.07000
C2886       C  0.76814876  0.48037928  0.52489958     0.13900
C2887       C  0.78595563  0.47902755  0.54686818    -0.23800
H2888       H  0.74067896  0.47923772  0.55628248     0.15200
H2889       H  0.75826390  0.48154449  0.94982617     0.15200
C2890       C  0.71531118  0.48674675  0.96006721    -0.23700
H2891       H  0.79276223  0.49608365  0.56165000     0.05400
H2892       H  0.80442502  0.48062729  0.53795023     0.08700
H2893       H  0.77434424  0.45982578  0.55871460     0.08700
H2894       H  0.71400306  0.50456271  0.96551415     0.08600
H2895       H  0.69467176  0.46868159  0.95918496     0.08600
H2896       H  0.72416333  0.48996713  0.93868528     0.05400
C2897       C  0.57447439  0.39842407  0.00488699    -0.20400
C2898       C  0.57568146  0.37809526  0.99000264    -0.07000
C2899       C  0.60337835  0.38351753  0.48800604     0.13900
C2900       C  0.62620087  0.40543320  0.50035855    -0.20400
C2901       C  0.62525719  0.42587717  0.51517344    -0.07000
C2902       C  0.59752005  0.42084789  0.01667911     0.13900
C2903       C  0.59252483  0.43955143  0.03400790    -0.23800
H2904       H  0.55549541  0.39718174  0.00817934     0.15200
H2905       H  0.64474160  0.40562258  0.49860712     0.15200
C2906       C  0.60816050  0.36458250  0.47058765    -0.23700
H2907       H  0.57692995  0.42768960  0.05023204     0.05400
H2908       H  0.58496018  0.44956500  0.02031879     0.08700
H2909       H  0.61226249  0.45640768  0.54865338     0.08700
H2910       H  0.59505974  0.34124650  0.97903830     0.08600
H2911       H  0.62979958  0.37073346  0.47018605     0.08600
H2912       H  0.60267353  0.36486904  0.44854357     0.05400
C2913       C  0.51689835  0.23414079  0.98737762    -0.20400
C2914       C  0.52295340  0.23440835  0.51450615    -0.07000
C2915       C  0.52503137  0.25439782  0.53278933     0.13900
C2916       C  0.52367792  0.27603554  0.52185304    -0.20400
C2917       C  0.51887244  0.27666450  0.99303364    -0.07000
C2918       C  0.51629067  0.25585915  0.97545337     0.13900
C2919       C  0.51463113  0.25696568  0.94407533    -0.23800
H2920       H  0.51608732  0.21875180  0.97389737     0.15200
H2921       H  0.52596484  0.29169402  0.53592854     0.15200
C2922       C  0.53072844  0.25409937  0.56345565    -0.23700
H2923       H  0.51491541  0.24002824  0.93374728     0.05400
H2924       H  0.53212878  0.27590318  0.93596627     0.08700
H2925       H  0.49549756  0.25545998  0.93802532     0.08700
H2926       H  0.55002648  0.25466326  0.56586850     0.08600
H2927       H  0.51404819  0.23565866  0.57353744     0.08600
H2928       H  0.53269060  0.27176965  0.57460304     0.05400
C2929       C  0.34975138  0.00893243  0.02426958    -0.20400
C2930       C  0.37681650  0.02343781  0.52889990    -0.07000
C2931       C  0.39148151  0.01068258  0.53461324     0.13900
C2932       C  0.37796868  0.98241688  0.53433385    -0.20400
C2933       C  0.35024324  0.96629401  0.52832895    -0.07000
C2934       C  0.33541747  0.98061700  0.02454589     0.13900
C2935       C  0.30524257  0.96564984  0.02014932    -0.23800
H2936       H  0.33877356  0.01899658  0.02052571     0.15200
H2937       H  0.38955683  0.97290170  0.53752000     0.15200
C2938       C  0.42147207  0.02637686  0.54023931    -0.23700
H2939       H  0.29755424  0.97952425  0.01894600     0.05400
H2940       H  0.29449653  0.94875467  0.53734001     0.08700
H2941       H  0.29999536  0.95431776  0.00016042     0.08700
H2942       H  0.42593019  0.04025890  0.55812281     0.08600
H2943       H  0.43276286  0.03791250  0.52130031     0.08600
H2944       H  0.42904978  0.01296901  0.54572572     0.05400
C2945       C  0.34696244  0.31970306  0.98191507    -0.20400
C2946       C  0.37485780  0.33387936  0.97603329    -0.07000
C2947       C  0.38913288  0.36444768  0.46974787     0.13900
C2948       C  0.37376928  0.37675253  0.46994698    -0.20400
C2949       C  0.34548870  0.36052251  0.97629428    -0.07000
C2950       C  0.33217350  0.33259737  0.98244662     0.13900
C2951       C  0.30287851  0.31643303  0.99141337    -0.23800
H2952       H  0.33693009  0.29870501  0.98804250     0.15200
H2953       H  0.38381174  0.39816699  0.46574554     0.15200
C2954       C  0.41879543  0.38144706  0.46235921    -0.23700
H2955       H  0.29605686  0.29505234  0.99569092     0.05400
H2956       H  0.28991800  0.31666095  0.97455201     0.08700
H2957       H  0.29872303  0.32364176  0.50829936     0.08700
H2958       H  0.42048213  0.36636094  0.94144794     0.08600
H2959       H  0.43131730  0.38412426  0.48095855     0.08600
H2960       H  0.42448022  0.40187641  0.45511690     0.05400
C2961       C  0.38438204  0.17152054  0.97770167    -0.20400
C2962       C  0.38888993  0.16394085  0.51089569    -0.07000
C2963       C  0.39110040  0.17769362  0.53617589     0.13900
C2964       C  0.39238047  0.20243741  0.53502996    -0.20400
C2965       C  0.39141114  0.21383871  0.50942391    -0.07000
C2966       C  0.38403430  0.19540273  0.97672092     0.13900
C2967       C  0.38184455  0.20574082  0.94853902    -0.23800
H2968       H  0.38416477  0.16184014  0.95822084     0.15200
H2969       H  0.39558220  0.21363200  0.55423334     0.15200
C2970       C  0.39312271  0.16721448  0.56434000    -0.23700
H2971       H  0.37785409  0.19106521  0.93158468     0.05400
H2972       H  0.40139145  0.22706147  0.45067454     0.08700
H2973       H  0.36483749  0.20932798  0.94883871     0.08700
H2974       H  0.41225078  0.16729482  0.56569749     0.08600
H2975       H  0.36892608  0.14032739  0.05844780     0.08600
H2976       H  0.39310359  0.17986248  0.58175138     0.05400
C2977       C  0.99149849  0.32889381  0.52966006    -0.20400
C2978       C  0.97891107  0.34384408  0.52687693    -0.07000
C2979       C  0.99534415  0.37238649  0.52688641     0.13900
C2980       C  0.02360568  0.38478663  0.52707599    -0.20400
C2981       C  0.03620993  0.36973083  0.52672240    -0.07000
C2982       C  0.01981060  0.34132701  0.52944810     0.13900
C2983       C  0.03162925  0.32369472  0.53138047    -0.23800
H2984       H  0.97912130  0.30710703  0.53048095     0.15200
H2985       H  0.03594144  0.40655484  0.52578114     0.15200
C2986       C  0.98369916  0.39022566  0.52554780    -0.23700
H2987       H  0.01576992  0.30225528  0.53512038     0.05400
H2988       H  0.04604931  0.33037791  0.54907734     0.08700
H2989       H  0.04192719  0.32650826  0.99344286     0.08700
H2990       H  0.96942208  0.38550720  0.54329528     0.08600
H2991       H  0.97295037  0.38576797  0.02303541     0.08600
H2992       H  0.99964114  0.41191238  0.52699074     0.05400
C2993       C  0.63729251  0.00950083  0.97061392    -0.20400
C2994       C  0.66428010  0.02619310  0.97906256    -0.07000
C2995       C  0.67485092  0.01189268  0.47478955     0.13900
C2996       C  0.66183524  0.98357841  0.47546147    -0.20400
C2997       C  0.63378755  0.96698127  0.47987800    -0.07000
C2998       C  0.62435278  0.98124809  0.97092162     0.13900
C2999       C  0.59520033  0.96488095  0.96193255    -0.23800
H3000       H  0.62577404  0.01860048  0.96493917     0.15200
H3001       H  0.67387282  0.97436717  0.47368734     0.15200
C3002       C  0.70504888  0.02821878  0.47028641    -0.23700
H3003       H  0.58804265  0.97780763  0.95345810     0.05400
H3004       H  0.58216332  0.95146560  0.50464444     0.08700
H3005       H  0.59290467  0.95060929  0.94518337     0.08700
H3006       H  0.71521182  0.04011067  0.48931143     0.08600
H3007       H  0.72089265  0.04452187  0.97619366     0.08600
H3008       H  0.71338799  0.01521404  0.46593087     0.05400
C3009       C  0.81841020  0.20879173  0.53211068    -0.20400
C3010       C  0.83293726  0.21663914  0.50676823    -0.07000
C3011       C  0.82106085  0.20015924  0.98357913     0.13900
C3012       C  0.79514760  0.17686439  0.98555680    -0.20400
C3013       C  0.78121393  0.16879827  0.51008714    -0.07000
C3014       C  0.79272800  0.18520849  0.53416376     0.13900
C3015       C  0.77784935  0.17904630  0.56180215    -0.23800
H3016       H  0.82639899  0.22208723  0.55003256     0.15200
H3017       H  0.78737596  0.16313999  0.96796178     0.15200
C3018       C  0.83772736  0.20457344  0.95750948    -0.23700
H3019       H  0.79014648  0.19408326  0.57810724     0.05400
H3020       H  0.76821277  0.16530591  0.06911751     0.08700
H3021       H  0.75899516  0.17934855  0.55932184     0.08700
H3022       H  0.85777445  0.20794478  0.96332919     0.08600
H3023       H  0.84034493  0.22191216  0.44568646     0.08600
H3024       H  0.82782500  0.18687371  0.94335411     0.05400
C3025       C  0.83576732  0.39541053  0.99293318    -0.20400
C3026       C  0.81489449  0.37498863  0.51174068    -0.07000
C3027       C  0.79255591  0.37809268  0.51773151     0.13900
C3028       C  0.79208961  0.40018101  0.50672623    -0.20400
C3029       C  0.81312077  0.42077666  0.98804553    -0.07000
C3030       C  0.83484060  0.41701347  0.98107462     0.13900
C3031       C  0.85720197  0.43506378  0.96061461    -0.23800
H3032       H  0.85267337  0.39365135  0.98713048     0.15200
H3033       H  0.77448881  0.40111983  0.51136019     0.15200
C3034       C  0.76861853  0.35852515  0.53578703    -0.23700
H3035       H  0.87170710  0.42830770  0.95729334     0.05400
H3036       H  0.86929853  0.45600222  0.96826438     0.08700
H3037       H  0.84875273  0.43471594  0.93979873     0.08700
H3038       H  0.77490776  0.35908654  0.55766688     0.08600
H3039       H  0.75863447  0.33777378  0.52752712     0.08600
H3040       H  0.75273974  0.36371671  0.53665360     0.05400
C3041       C  0.62288341  0.20605008  0.50974657    -0.20400
C3042       C  0.62101858  0.18836968  0.99331582    -0.07000
C3043       C  0.59430099  0.16641722  0.98842895     0.13900
C3044       C  0.57209520  0.16617187  0.00071708    -0.20400
C3045       C  0.57380825  0.18584840  0.51292498    -0.07000
C3046       C  0.60050419  0.20662419  0.52016355     0.13900
C3047       C  0.60713748  0.23041801  0.53869963    -0.23800
H3048       H  0.64225849  0.22251866  0.51604751     0.15200
H3049       H  0.55270569  0.14853127  0.99671258     0.15200
C3050       C  0.58754729  0.14263663  0.96989397    -0.23700
H3051       H  0.62053287  0.24939816  0.52702993     0.05400
H3052       H  0.61803353  0.22999098  0.55754312     0.08700
H3053       H  0.58965951  0.23145269  0.54599490     0.08700
H3054       H  0.60491538  0.14413822  0.95860183     0.08600
H3055       H  0.57301497  0.14059324  0.95359328     0.08600
H3056       H  0.57792641  0.12394837  0.98271884     0.05400
C3057       C  0.72905831  0.23081675  0.51696860    -0.20400
C3058       C  0.72371849  0.23118568  0.98963862    -0.07000
C3059       C  0.74296459  0.25123926  0.97153691     0.13900
C3060       C  0.76660978  0.27306668  0.98287073    -0.20400
C3061       C  0.77055884  0.27439415  0.51091619    -0.07000
C3062       C  0.75235680  0.25288817  0.52859134     0.13900
C3063       C  0.75615292  0.25362810  0.55980989    -0.23800
H3064       H  0.71428139  0.21498199  0.53060306     0.15200
H3065       H  0.78076956  0.28910971  0.96903839     0.15200
C3066       C  0.73769208  0.25080876  0.94062293    -0.23700
H3067       H  0.73880381  0.23602902  0.57039109     0.05400
H3068       H  0.75792225  0.27203227  0.56864756     0.08700
H3069       H  0.77447163  0.25304385  0.56471231     0.08700
H3070       H  0.71882268  0.25090311  0.93726278     0.08600
H3071       H  0.73562855  0.23249972  0.93099778     0.08600
H3072       H  0.75445494  0.26860402  0.92966502     0.05400
C3073       C  0.83428136  0.49086255  0.86153912    -0.20400
C3074       C  0.80992003  0.47471731  0.84725370    -0.07000
C3075       C  0.78565352  0.45941668  0.86266374     0.13900
C3076       C  0.78645848  0.45971648  0.89212270    -0.20400
C3077       C  0.81105907  0.47471478  0.90640305    -0.07000
C3078       C  0.83516751  0.49085187  0.89097230     0.13900
C3079       C  0.86201274  0.50678202  0.90550667    -0.23800
H3080       H  0.85290249  0.50222638  0.84957547     0.15200
H3081       H  0.76804727  0.44716154  0.90405066     0.15200
C3082       C  0.75915311  0.44196468  0.84794461    -0.23700
H3083       H  0.87894532  0.51784823  0.89034085     0.05400
H3084       H  0.86592272  0.49303442  0.91785101     0.08700
H3085       H  0.86177814  0.52171130  0.91975776     0.08700
H3086       H  0.76004656  0.42641182  0.83537999     0.08600
H3087       H  0.75507526  0.45455877  0.83383456     0.08600
H3088       H  0.74203361  0.43153970  0.86302142     0.05400
C3089       C  0.99816091  0.65038097  0.77287477    -0.20400
C3090       C  0.98266759  0.62224868  0.77641012    -0.07000
C3091       C  0.99654236  0.60842793  0.78064708     0.13900
C3092       C  0.02504357  0.62286506  0.77998688    -0.20400
C3093       C  0.04046549  0.65070880  0.77452118    -0.07000
C3094       C  0.02662447  0.66470889  0.77149069     0.13900
C3095       C  0.04130221  0.69454217  0.76557058    -0.23800
H3096       H  0.98788504  0.66123482  0.76973628     0.15200
H3097       H  0.03533300  0.61195064  0.78252381     0.15200
C3098       C  0.98177964  0.57835383  0.78492849    -0.23700
H3099       H  0.02719374  0.70197431  0.76417202     0.05400
H3100       H  0.05221692  0.69904761  0.74522062     0.08700
H3101       H  0.05575423  0.70579830  0.78267647     0.08700
H3102       H  0.96999535  0.56786172  0.76594660     0.08600
H3103       H  0.96810499  0.57254862  0.80340290     0.08600
H3104       H  0.99592318  0.57126614  0.78874064     0.05400
C3105       C  0.89415748  0.55468659  0.64875278    -0.20400
C3106       C  0.90528918  0.57985870  0.66192544    -0.07000
C3107       C  0.91719497  0.60343226  0.64510053     0.13900
C3108       C  0.91671126  0.60098561  0.61586193    -0.20400
C3109       C  0.90470645  0.57576918  0.60264098    -0.07000
C3110       C  0.89368431  0.55224621  0.61948453     0.13900
C3111       C  0.88122976  0.52441178  0.60715787    -0.23800
H3112       H  0.88532342  0.53658246  0.66145176     0.15200
H3113       H  0.92541004  0.61909738  0.60319642     0.15200
C3114       C  0.93015963  0.63133838  0.65738210    -0.23700
H3115       H  0.87450676  0.50867081  0.62361723     0.05400
H3116       H  0.89631227  0.52326490  0.59376727     0.08700
H3117       H  0.86315737  0.51957392  0.59467855     0.08700
H3118       H  0.94720375  0.63521117  0.67110973     0.08600
H3119       H  0.91493460  0.63340304  0.66947324     0.08600
H3120       H  0.93849202  0.64719935  0.64093056     0.05400
C3121       C  0.68308515  0.65678323  0.73065089    -0.20400
C3122       C  0.66830252  0.62848557  0.72888758    -0.07000
C3123       C  0.64011849  0.61515238  0.72348138     0.13900
C3124       C  0.62748353  0.63015836  0.72223708    -0.20400
C3125       C  0.64184755  0.65812637  0.72659322    -0.07000
C3126       C  0.67034646  0.67175421  0.72971984     0.13900
C3127       C  0.68750305  0.70185075  0.73353875    -0.23800
H3128       H  0.70468929  0.66727854  0.73424146     0.15200
H3129       H  0.60578379  0.61963548  0.71926695     0.15200
C3130       C  0.62268705  0.58502209  0.72006759    -0.23700
H3131       H  0.70932002  0.70895277  0.73538424     0.05400
H3132       H  0.68139557  0.70780316  0.75299173     0.08700
H3133       H  0.68522158  0.71216568  0.71518674     0.08700
H3134       H  0.62221870  0.57479940  0.73985009     0.08600
H3135       H  0.63065777  0.57841439  0.70267477     0.08600
H3136       H  0.60143288  0.57841887  0.71499489     0.05400
C3137       C  0.70763495  0.60602971  0.86337818    -0.20400
C3138       C  0.69621284  0.58133443  0.84914411    -0.07000
C3139       C  0.68498891  0.55721331  0.86502331     0.13900
C3140       C  0.68631848  0.55867850  0.89435172    -0.20400
C3141       C  0.69877729  0.58345190  0.90849459    -0.07000
C3142       C  0.70920583  0.60750315  0.89268294     0.13900
C3143       C  0.72205145  0.63489453  0.90617924    -0.23800
H3144       H  0.71602564  0.62456088  0.85146132     0.15200
H3145       H  0.67813635  0.54019079  0.90631289     0.15200
C3146       C  0.67202211  0.52978869  0.85159672    -0.23700
H3147       H  0.72786705  0.65113895  0.89050309     0.05400
H3148       H  0.74076666  0.63953001  0.91725592     0.08700
H3149       H  0.70756734  0.63540983  0.92109792     0.08700
H3150       H  0.68711558  0.52835092  0.83853532     0.08600
H3151       H  0.65467740  0.52622726  0.83855601     0.08600
H3152       H  0.66414940  0.51337041  0.86741690     0.05400
C3153       C  0.80299749  0.60914874  0.78205553    -0.20400
C3154       C  0.79208391  0.61029888  0.75619137    -0.07000
C3155       C  0.80713644  0.61372229  0.73143057     0.13900
C3156       C  0.83107875  0.61331703  0.73308608    -0.20400
C3157       C  0.84035778  0.60916768  0.75863816    -0.07000
C3158       C  0.82670352  0.60830574  0.78365811     0.13900
C3159       C  0.83593206  0.60510732  0.81204848    -0.23800
H3160       H  0.79206824  0.60728744  0.80124835     0.15200
H3161       H  0.84187293  0.61481748  0.71389645     0.15200
C3162       C  0.79791101  0.61686278  0.70301366    -0.23700
H3163       H  0.82291326  0.60515495  0.82918549     0.05400
H3164       H  0.85689106  0.62205579  0.81587618     0.08700
H3165       H  0.83508427  0.58565439  0.81318381     0.08700
H3166       H  0.79508406  0.63429008  0.70316541     0.08600
H3167       H  0.77870524  0.59820264  0.69735684     0.08600
H3168       H  0.81294077  0.62056226  0.68635410     0.05400
C3169       C  0.68428343  0.45914589  0.64446659    -0.20400
C3170       C  0.68307799  0.47976435  0.65825561    -0.07000
C3171       C  0.68388223  0.50053341  0.64215950     0.13900
C3172       C  0.68371934  0.49899923  0.61262710    -0.20400
C3173       C  0.68265169  0.47710901  0.59892917    -0.07000
C3174       C  0.68433977  0.45769363  0.61507904     0.13900
C3175       C  0.68630748  0.43542715  0.60143571    -0.23800
H3176       H  0.68403676  0.44343191  0.65684830     0.15200
H3177       H  0.68290790  0.51413400  0.60023840     0.15200
C3178       C  0.68345219  0.52349295  0.65607307    -0.23700
H3179       H  0.68905207  0.42303509  0.61716076     0.05400
H3180       H  0.70394244  0.44421266  0.58693239     0.08700
H3181       H  0.66766059  0.42177650  0.58962642     0.08700
H3182       H  0.70159296  0.53489361  0.66942292     0.08600
H3183       H  0.66495066  0.51561828  0.66921814     0.08600
H3184       H  0.68359326  0.53769330  0.64047674     0.05400
C3185       C  0.71980345  0.45014019  0.74588976    -0.20400
C3186       C  0.72203098  0.47515654  0.74173901    -0.07000
C3187       C  0.74684666  0.49876964  0.74933339     0.13900
C3188       C  0.76842254  0.49642433  0.75962532    -0.20400
C3189       C  0.76550587  0.47117625  0.76437042    -0.07000
C3190       C  0.73989203  0.44778602  0.75916587     0.13900
C3191       C  0.73176346  0.41996992  0.76930118    -0.23800
H3192       H  0.70135615  0.43169491  0.74020167     0.15200
H3193       H  0.78773103  0.51451088  0.76389724     0.15200
C3194       C  0.75085645  0.52644527  0.74773159    -0.23700
H3195       H  0.71223349  0.41095983  0.78087581     0.05400
H3196       H  0.74628642  0.42004714  0.78426629     0.08700
H3197       H  0.72911492  0.40689287  0.75115546     0.08700
H3198       H  0.73384013  0.52656867  0.75833353     0.08600
H3199       H  0.75267949  0.53290644  0.72562852     0.08600
H3200       H  0.76981837  0.54171807  0.75823651     0.05400
C3201       C  0.54562955  0.31997297  0.86139821    -0.20400
C3202       C  0.52405636  0.31926212  0.84744509    -0.07000
C3203       C  0.50189092  0.31607348  0.86337626     0.13900
C3204       C  0.50295928  0.31588960  0.89287389    -0.20400
C3205       C  0.52576275  0.31917573  0.90673152    -0.07000
C3206       C  0.54674706  0.31984006  0.89071593     0.13900
C3207       C  0.57082320  0.32076846  0.90372338    -0.23800
H3208       H  0.56240867  0.32184768  0.84926006     0.15200
H3209       H  0.48675053  0.31504811  0.90515561     0.15200
C3210       C  0.47797843  0.31477019  0.84957732    -0.23700
H3211       H  0.57219154  0.30355024  0.89594808     0.05400
H3212       H  0.56953586  0.31928683  0.92684891     0.08700
H3213       H  0.58960836  0.33983462  0.89774068     0.08700
H3214       H  0.46734335  0.29654904  0.83629434     0.08600
H3215       H  0.48482045  0.33303678  0.83657221     0.08600
H3216       H  0.46315972  0.31361351  0.86523385     0.05400
C3217       C  0.59287660  0.40251648  0.78163568    -0.20400
C3218       C  0.57428057  0.38180421  0.76380836    -0.07000
C3219       C  0.57757235  0.38717000  0.73443917     0.13900
C3220       C  0.60020695  0.41113165  0.72432886    -0.20400
C3221       C  0.62031556  0.43056736  0.74207119    -0.07000
C3222       C  0.61535766  0.42662186  0.77148852     0.13900
C3223       C  0.63305598  0.44766591  0.79294994    -0.23800
H3224       H  0.58991619  0.40067726  0.80393586     0.15200
H3225       H  0.60167627  0.41411050  0.70206991     0.15200
C3226       C  0.55762323  0.36809895  0.71286365    -0.23700
H3227       H  0.62602202  0.44066151  0.81470844     0.05400
H3228       H  0.63237055  0.46614120  0.79014812     0.08700
H3229       H  0.65423756  0.45269367  0.79187014     0.08700
H3230       H  0.53707165  0.36418149  0.71686704     0.08600
H3231       H  0.55718209  0.34893616  0.71224731     0.08600
H3232       H  0.56315977  0.37652669  0.69132900     0.05400
C3233       C  0.50278963  0.17193617  0.64247139    -0.20400
C3234       C  0.52390259  0.19432193  0.65627158    -0.07000
C3235       C  0.54417523  0.21597493  0.64017728     0.13900
C3236       C  0.54389911  0.21389309  0.61090892    -0.20400
C3237       C  0.52350501  0.19106564  0.59710609    -0.07000
C3238       C  0.50241269  0.17001253  0.61301310     0.13900
C3239       C  0.48051608  0.14484576  0.59909135    -0.23800
H3240       H  0.48748862  0.15520300  0.65483209     0.15200
H3241       H  0.56021590  0.22997298  0.59877683     0.15200
C3242       C  0.56664085  0.24141447  0.65325302    -0.23700
H3243       H  0.46622383  0.12990774  0.61463336     0.05400
H3244       H  0.48964730  0.13532918  0.58683833     0.08700
H3245       H  0.46880581  0.14997478  0.58490467     0.08700
H3246       H  0.58641833  0.24359309  0.64828977     0.08600
H3247       H  0.56456076  0.24183508  0.67631515     0.08600
H3248       H  0.56651083  0.25901707  0.64457460     0.05400
C3249       C  0.51658746  0.24937413  0.72382828    -0.20400
C3250       C  0.51972381  0.23284958  0.74278943    -0.07000
C3251       C  0.52065337  0.23835601  0.77190030     0.13900
C3252       C  0.52186293  0.26192406  0.78084948    -0.20400
C3253       C  0.52099002  0.27958238  0.76167409    -0.07000
C3254       C  0.51676565  0.27244325  0.73296061     0.13900
C3255       C  0.51221538  0.28858657  0.71149701    -0.23800
H3256       H  0.51502127  0.24487366  0.70163107     0.15200
H3257       H  0.52409562  0.26684323  0.80297102     0.15200
C3258       C  0.52009067  0.21974461  0.79418589    -0.23700
H3259       H  0.49264992  0.27531251  0.70082907     0.05400
H3260       H  0.52875610  0.29682313  0.69565713     0.08700
H3261       H  0.51124006  0.30548373  0.72081720     0.08700
H3262       H  0.53961558  0.22982628  0.80554704     0.08600
H3263       H  0.51617475  0.20033544  0.78567771     0.08600
H3264       H  0.50351334  0.21482183  0.80934215     0.05400
C3265       C  0.34770589  0.32338423  0.76743588    -0.20400
C3266       C  0.37538394  0.33785849  0.77405031    -0.07000
C3267       C  0.38746578  0.36512687  0.78243129     0.13900
C3268       C  0.37209737  0.37743978  0.78197563    -0.20400
C3269       C  0.34502182  0.36353252  0.77313610    -0.07000
C3270       C  0.33244631  0.33576724  0.76660213     0.13900
C3271       C  0.30342651  0.31917065  0.75719297    -0.23800
H3272       H  0.33817344  0.30246530  0.76126106     0.15200
H3273       H  0.38173657  0.39854146  0.78745996     0.15200
C3274       C  0.41659136  0.38172108  0.79145521    -0.23700
H3275       H  0.29720021  0.29797182  0.75279462     0.05400
H3276       H  0.30071490  0.32772797  0.73760804     0.08700
H3277       H  0.28981323  0.31880152  0.77386660     0.08700
H3278       H  0.43024548  0.38497447  0.77352529     0.08600
H3279       H  0.42025725  0.37135328  0.80878648     0.08600
H3280       H  0.42189308  0.40190687  0.79911546     0.05400
C3281       C  0.39864328  0.30422308  0.64391767    -0.20400
C3282       C  0.42350943  0.31373001  0.65740883    -0.07000
C3283       C  0.44749625  0.32532050  0.64098017     0.13900
C3284       C  0.44556398  0.32509833  0.61170120    -0.20400
C3285       C  0.42045251  0.31356458  0.59819667    -0.07000
C3286       C  0.39672417  0.30399131  0.61465952     0.13900
C3287       C  0.36923008  0.29339543  0.60190824    -0.23800
H3288       H  0.38027841  0.29611512  0.65631949     0.15200
H3289       H  0.46388674  0.33307442  0.59924907     0.15200
C3290       C  0.47522167  0.33754110  0.65372220    -0.23700
H3291       H  0.35349488  0.28861148  0.61810944     0.05400
H3292       H  0.36282896  0.27453557  0.59023719     0.08700
H3293       H  0.36988074  0.30878510  0.58767476     0.08700
H3294       H  0.47688230  0.32189159  0.66514133     0.08600
H3295       H  0.47893502  0.35404158  0.66820229     0.08600
H3296       H  0.49149992  0.34627485  0.63756353     0.05400
C3297       C  0.39283969  0.01424401  0.72130958    -0.20400
C3298       C  0.37705676  0.02483911  0.73004211    -0.07000
C3299       C  0.34942470  0.00670137  0.73674188     0.13900
C3300       C  0.33915299  0.97886146  0.73672041    -0.20400
C3301       C  0.35572336  0.96843180  0.73090544    -0.07000
C3302       C  0.38267467  0.98639664  0.72178992     0.13900
C3303       C  0.40110858  0.97665824  0.71296309    -0.23800
H3304       H  0.41381853  0.02796104  0.71548585     0.15200
H3305       H  0.31836011  0.96525361  0.74322232     0.15200
C3306       C  0.33089398  0.01628358  0.74574484    -0.23700
H3307       H  0.42065407  0.99330771  0.70448042     0.05400
H3308       H  0.39130351  0.96122998  0.69631199     0.08700
H3309       H  0.40583289  0.96805385  0.73116783     0.08700
H3310       H  0.32955829  0.02857618  0.72882169     0.08600
H3311       H  0.33858854  0.02836973  0.76519658     0.08600
H3312       H  0.31005008  0.99923906  0.75021525     0.05400
C3313       C  0.44422918  0.11923745  0.86208345    -0.20400
C3314       C  0.42101288  0.09901248  0.84848202    -0.07000
C3315       C  0.39935114  0.07892205  0.86480649     0.13900
C3316       C  0.40121605  0.08027994  0.89412792    -0.20400
C3317       C  0.42388181  0.10131187  0.90777722    -0.07000
C3318       C  0.44592424  0.12089390  0.89137122     0.13900
C3319       C  0.47096040  0.14426314  0.90418016    -0.23800
H3320       H  0.46089498  0.13462893  0.84969347     0.15200
H3321       H  0.38442950  0.06503968  0.90650767     0.15200
C3322       C  0.37417604  0.05595448  0.85176559    -0.23700
H3323       H  0.48573543  0.15769448  0.88800277     0.05400
H3324       H  0.48126809  0.13670554  0.91741223     0.08700
H3325       H  0.46541861  0.15663079  0.91693428     0.08700
H3326       H  0.37972434  0.04484376  0.83701858     0.08600
H3327       H  0.36295525  0.06373795  0.84053913     0.08600
H3328       H  0.36019976  0.04138468  0.86775975     0.05400
C3329       C  0.39182680  0.20399475  0.77894196    -0.20400
C3330       C  0.39259263  0.21478958  0.75240785    -0.07000
C3331       C  0.38974973  0.19923185  0.72831416     0.13900
C3332       C  0.38922451  0.17501310  0.73137761    -0.20400
C3333       C  0.39181310  0.16593220  0.75769159    -0.07000
C3334       C  0.39156942  0.17988262  0.78197440     0.13900
C3335       C  0.39146130  0.16996992  0.81118981    -0.23800
H3336       H  0.39308165  0.21528042  0.79752461     0.15200
H3337       H  0.38857507  0.16402611  0.71277230     0.15200
C3338       C  0.38791882  0.20802655  0.69912886    -0.23700
H3339       H  0.38876847  0.18211912  0.82735083     0.05400
H3340       H  0.41096941  0.17148760  0.81553770     0.08700
H3341       H  0.37449552  0.14877400  0.81354479     0.08700
H3342       H  0.40740832  0.22622384  0.69296264     0.08600
H3343       H  0.37132821  0.21219745  0.69821649     0.08600
H3344       H  0.38353872  0.19224104  0.68335834     0.05400
C3345       C  0.98854857  0.32675451  0.72202791    -0.20400
C3346       C  0.97651534  0.34230102  0.72413882    -0.07000
C3347       C  0.99338545  0.37074778  0.72243360     0.13900
C3348       C  0.02156893  0.38261440  0.72194929    -0.20400
C3349       C  0.03363854  0.36712914  0.72379592    -0.07000
C3350       C  0.01682595  0.33869753  0.72207188     0.13900
C3351       C  0.02814848  0.32058444  0.72170946    -0.23800
H3352       H  0.97577883  0.30498175  0.72231544     0.15200
H3353       H  0.03428417  0.40438921  0.72214253     0.15200
C3354       C  0.98232466  0.38911871  0.72281443    -0.23700
H3355       H  0.01200489  0.29907076  0.71927421     0.05400
H3356       H  0.03863669  0.32241662  0.74169346     0.08700
H3357       H  0.04244968  0.32607570  0.70383296     0.08700
H3358       H  0.97216174  0.38735746  0.74316537     0.08600
H3359       H  0.96788968  0.38391101  0.70533127     0.08600
H3360       H  0.99855630  0.41060364  0.72023330     0.05400
C3361       C  0.90252500  0.33372874  0.86367243    -0.20400
C3362       C  0.90911375  0.31700525  0.84894365    -0.07000
C3363       C  0.91618520  0.30077852  0.86428999     0.13900
C3364       C  0.91542607  0.30100720  0.89361928    -0.20400
C3365       C  0.90752148  0.31665540  0.90839285    -0.07000
C3366       C  0.90162821  0.33383003  0.89312054     0.13900
C3367       C  0.89352451  0.35169446  0.90735723    -0.23800
H3368       H  0.89732499  0.34633625  0.85203059     0.15200
H3369       H  0.92034162  0.28811361  0.90511663     0.15200
C3370       C  0.92332795  0.28206893  0.85025051    -0.23700
H3371       H  0.88952371  0.36350347  0.89202442     0.05400
H3372       H  0.91006082  0.36625157  0.92120980     0.08700
H3373       H  0.87471313  0.33926104  0.91978550     0.08700
H3374       H  0.94182296  0.29384691  0.83719613     0.08600
H3375       H  0.90622041  0.26727080  0.83710650     0.08600
H3376       H  0.92752650  0.27048100  0.86568204     0.05400
C3377       C  0.63640219  0.01202254  0.78288631    -0.20400
C3378       C  0.66398151  0.02859812  0.77617449    -0.07000
C3379       C  0.67950691  0.01638831  0.77236873     0.13900
C3380       C  0.66655946  0.98812081  0.77316803    -0.20400
C3381       C  0.63845523  0.97142422  0.77732033    -0.07000
C3382       C  0.62340153  0.98377798  0.78339179     0.13900
C3383       C  0.59341618  0.96765995  0.78941613    -0.23800
H3384       H  0.62450763  0.02119015  0.78642749     0.15200
H3385       H  0.67838440  0.97898245  0.76900309     0.15200
C3386       C  0.70944545  0.03262881  0.76605743    -0.23700
H3387       H  0.58545759  0.98076824  0.79494843     0.05400
H3388       H  0.58916453  0.95389133  0.80739091     0.08700
H3389       H  0.58228523  0.95598363  0.77062097     0.08700
H3390       H  0.72024753  0.04702593  0.78334208     0.08600
H3391       H  0.71321161  0.04368586  0.74598726     0.08600
H3392       H  0.71815309  0.01967237  0.76395622     0.05400
C3393       C  0.68537510  0.08273125  0.61210381    -0.20400
C3394       C  0.68139952  0.10131238  0.59757350    -0.07000
C3395       C  0.67672756  0.11928717  0.61308270     0.13900
C3396       C  0.67743049  0.11889743  0.64247747    -0.20400
C3397       C  0.68296550  0.10133932  0.65691251    -0.07000
C3398       C  0.68625472  0.08246980  0.64144115     0.13900
C3399       C  0.69049528  0.06178281  0.65545063    -0.23800
H3400       H  0.68842955  0.06858693  0.60038081     0.15200
H3401       H  0.67462688  0.13317900  0.65425206     0.15200
C3402       C  0.67203142  0.13968591  0.59910583    -0.23700
H3403       H  0.69069194  0.04755434  0.64009136     0.05400
H3404       H  0.67384974  0.04980070  0.67065634     0.08700
H3405       H  0.71025021  0.07183190  0.66632914     0.08700
H3406       H  0.65342112  0.12922510  0.58625806     0.08600
H3407       H  0.68969428  0.15339643  0.58570436     0.08600
H3408       H  0.66928903  0.15230400  0.61460977     0.05400
C3409       C  0.79056354  0.18337176  0.77939242    -0.20400
C3410       C  0.78054476  0.17242327  0.75282912    -0.07000
C3411       C  0.79751574  0.18437625  0.72905229     0.13900
C3412       C  0.82292557  0.20794707  0.73238053    -0.20400
C3413       C  0.83177396  0.22037445  0.75859784    -0.07000
C3414       C  0.81576782  0.20718210  0.78267794     0.13900
C3415       C  0.82440167  0.21810672  0.81192537    -0.23800
H3416       H  0.77798717  0.17402284  0.79775699     0.15200
H3417       H  0.83528660  0.21757540  0.71395769     0.15200
C3418       C  0.78906558  0.17310133  0.69992322    -0.23700
H3419       H  0.81010989  0.20405003  0.82806425     0.05400
H3420       H  0.82495370  0.23733137  0.81427394     0.08700
H3421       H  0.84461509  0.22121790  0.81634698     0.08700
H3422       H  0.77171917  0.17469373  0.69304349     0.08600
H3423       H  0.78350024  0.15174521  0.69958766     0.08600
H3424       H  0.80561063  0.18427345  0.68437047     0.05400
C3425       C  0.79056153  0.32032485  0.64184990    -0.20400
C3426       C  0.81277263  0.32229777  0.65567045    -0.07000
C3427       C  0.83302179  0.32159365  0.63974000     0.13900
C3428       C  0.83120003  0.32037120  0.61023772    -0.20400
C3429       C  0.80980587  0.32023130  0.59642517    -0.07000
C3430       C  0.78867229  0.31908364  0.61258968     0.13900
C3431       C  0.76396264  0.31697430  0.59976164    -0.23800
H3432       H  0.77494758  0.32077106  0.65401630     0.15200
H3433       H  0.84740847  0.32130370  0.59787270     0.15200
C3434       C  0.85739847  0.32398399  0.65364541    -0.23700
H3435       H  0.74553244  0.29886578  0.60820177     0.05400
H3436       H  0.76343056  0.31498718  0.57667869     0.08700
H3437       H  0.76321072  0.33509390  0.60522539     0.08700
H3438       H  0.85095650  0.30664824  0.66795567     0.08600
H3439       H  0.86823408  0.34300432  0.66577665     0.08600
H3440       H  0.87177538  0.32410528  0.63808440     0.05400
C3441       C  0.82372884  0.40215347  0.72237522    -0.20400
C3442       C  0.82205136  0.38180320  0.73978141    -0.07000
C3443       C  0.82255894  0.38583276  0.76930538     0.13900
C3444       C  0.82213615  0.40812777  0.77985444    -0.20400
C3445       C  0.82143378  0.42727298  0.76245352    -0.07000
C3446       C  0.82368191  0.42468079  0.73298282     0.13900
C3447       C  0.82649664  0.44548048  0.71190215    -0.23800
H3448       H  0.82543839  0.40110517  0.70006504     0.15200
H3449       H  0.82260293  0.41017588  0.80219043     0.15200
C3450       C  0.82374476  0.36714796  0.79061099    -0.23700
H3451       H  0.82814718  0.43980672  0.69009906     0.05400
H3452       H  0.84515286  0.46518076  0.71566200     0.08700
H3453       H  0.80877392  0.44778342  0.71224352     0.08700
H3454       H  0.84240036  0.36661413  0.78796115     0.08600
H3455       H  0.80582535  0.34654446  0.78943214     0.08600
H3456       H  0.82414708  0.37392595  0.81244539     0.05400
C3457       C  0.67596334  0.17563201  0.86087888    -0.20400
C3458       C  0.67417356  0.19597622  0.84720157    -0.07000
C3459       C  0.67364448  0.21601322  0.86360707     0.13900
C3460       C  0.67364656  0.21439074  0.89291501    -0.20400
C3461       C  0.67398468  0.19331162  0.90668280    -0.07000
C3462       C  0.67554034  0.17382616  0.89039131     0.13900
C3463       C  0.67487477  0.15009722  0.90377656    -0.23800
H3464       H  0.67616377  0.16019122  0.84838845     0.15200
H3465       H  0.67266492  0.22950074  0.90525311     0.15200
C3466       C  0.67292564  0.23944864  0.85126015    -0.23700
H3467       H  0.67415812  0.13582919  0.88785931     0.05400
H3468       H  0.65665089  0.13896958  0.91735707     0.08700
H3469       H  0.69332534  0.15701032  0.91637304     0.08700
H3470       H  0.65395362  0.23830375  0.85783265     0.08600
H3471       H  0.67405741  0.24028654  0.82813375     0.08600
H3472       H  0.69042152  0.25858956  0.85910231     0.05400
C3473       C  0.62300580  0.21062661  0.74487517    -0.20400
C3474       C  0.62074737  0.18934759  0.76117155    -0.07000
C3475       C  0.59416034  0.16760074  0.76763283     0.13900
C3476       C  0.57162552  0.16725951  0.75642027    -0.20400
C3477       C  0.57397644  0.18805584  0.73917771    -0.07000
C3478       C  0.60053700  0.21037542  0.73374419     0.13900
C3479       C  0.60617167  0.23467152  0.71648236    -0.23800
H3480       H  0.64234792  0.22849046  0.74112421     0.15200
H3481       H  0.55214281  0.15048783  0.76218910     0.15200
C3482       C  0.58860428  0.14457881  0.78695017    -0.23700
H3483       H  0.62809268  0.25021266  0.71547094     0.05400
H3484       H  0.59620288  0.24477092  0.72556831     0.08700
H3485       H  0.59978642  0.22894153  0.69455289     0.08700
H3486       H  0.56659793  0.13035125  0.79037850     0.08600
H3487       H  0.59737588  0.15210779  0.80789525     0.08600
H3488       H  0.59646257  0.13247655  0.77802017     0.05400
C3489       C  0.72956881  0.23659811  0.73492280    -0.20400
C3490       C  0.72382088  0.23500943  0.76376305    -0.07000
C3491       C  0.74267105  0.25558800  0.78151586     0.13900
C3492       C  0.76608469  0.27775606  0.76986603    -0.20400
C3493       C  0.77089417  0.28034282  0.74076419    -0.07000
C3494       C  0.75267119  0.25906653  0.72313284     0.13900
C3495       C  0.75610523  0.26073951  0.69176968    -0.23800
H3496       H  0.71494542  0.22083828  0.72131136     0.15200
H3497       H  0.78006241  0.29398416  0.78344720     0.15200
C3498       C  0.73719595  0.25537613  0.81237942    -0.23700
H3499       H  0.73890066  0.24316272  0.68123010     0.05400
H3500       H  0.77471199  0.26101851  0.68574418     0.08700
H3501       H  0.75713883  0.27915767  0.68392092     0.08700
H3502       H  0.73492906  0.23710125  0.82230532     0.08600
H3503       H  0.71844023  0.25565979  0.81548276     0.08600
H3504       H  0.75384556  0.27325421  0.82312891     0.05400
loop_ 
_geom_bond_atom_site_label_1 
_geom_bond_atom_site_label_2 
_geom_bond_distance 
_geom_bond_site_symmetry_2 
_ccdc_geom_bond_type 
C1            C2   1.547       .  S
C1            C7   1.532       .  S
C1            C5   1.535       .  S
C1         C1722   1.545       .  S
C2            H9   1.081       .  S
C2            C3   1.366       .  D
C3            C4   1.544       .  S
C3         C1738   1.492       .  S
C4            C8   1.544       .  S
C4            C6   1.546       .  S
C4           H10   1.110       .  S
C5           H11   1.085       .  S
C5            C6   1.366       .  D
C6           C26   1.479       .  S
C7           H12   1.086       .  S
C7            C8   1.364       .  D
C8         C1706   1.491       .  S
C13          C14   1.537       .  S
C13          C19   1.550       .  S
C13          C17   1.535       .  S
C13        C1690   1.548       .  S
C14          H21   1.086       .  S
C14          C15   1.366       .  D
C15          C16   1.542       .  S
C15        C1741   1.491       .  S
C16          C20   1.542       .  S
C16          C18   1.538       .  S
C16          H22   1.109       .  S
C17          H23   1.086       .  S
C17          C18   1.363       .  D
C18          C39   1.472       .  S
C19          H24   1.080       .  S
C19          C20   1.367       .  D
C20        C1674   1.491       .  S
O25          C28   1.266       .  A
O25         Cd30   2.473       .  S
C26          O35   1.263       .  A
C26          O31   1.266       .  A
O27          C33   1.260       .  A
O27         Cd30   2.447       .  S
C28          O36   1.263       .  A
C28        C1645   1.482       .  S
C29          O34   1.268       .  A
C29          O32   1.265       .  A
C29        C1658   1.477       .  S
Cd30         O37   2.501       .  S
Cd30         O36   2.441       .  S
Cd30         O35   2.489       .  S
Cd30         O31   2.462       .  S
Cd30         O34   2.442       .  S
Cd30         O32   2.430       .  S
C33          O37   1.267       .  A
C33        C1626   1.494       .  S
O38          C41   1.268       .  A
O38         Cd43   2.456       .  S
C39          O48   1.263       .  A
C39          O44   1.266       .  A
O40          C46   1.266       .  A
O40         Cd43   2.480       .  S
C41          O49   1.264       .  A
C41        C1610   1.489       .  S
C42          O47   1.269       .  A
C42          O45   1.261       .  A
C42        C1661   1.485       .  S
Cd43         O50   2.447       .  S
Cd43         O49   2.449       .  S
Cd43         O48   2.461       .  S
Cd43         O44   2.454       .  S
Cd43         O47   2.470       .  S
Cd43         O45   2.414       .  S
C46          O50   1.261       .  A
C46        C1594   1.486       .  S
O51          C54   1.267       .  A
O51         Cd56   2.469       .  S
C52          C82   1.478       .  S
C52          O61   1.265       .  A
C52          O57   1.266       .  A
O53          C59   1.265       .  A
O53         Cd56   2.491       .  S
C54          O62   1.263       .  A
C54        C1562   1.487       .  S
C55          O60   1.270       .  A
C55          O58   1.261       .  A
C55        C1581   1.491       .  S
Cd56         O63   2.467       .  S
Cd56         O62   2.439       .  S
Cd56         O61   2.494       .  S
Cd56         O57   2.439       .  S
Cd56         O60   2.485       .  S
Cd56         O58   2.430       .  S
C59          O63   1.264       .  A
C59        C1546   1.495       .  S
O64          C67   1.265       .  A
O64         Cd69   2.453       .  S
C65          O74   1.265       .  A
C65          O70   1.263       .  A
C65        C1530   1.483       .  S
O66          C72   1.270       .  A
O66         Cd69   2.487       .  S
C67          C94   1.474       .  S
C67          O75   1.265       .  A
C68          O73   1.266       .  A
C68          O71   1.262       .  A
C68        C1514   1.495       .  S
Cd69         O76   2.426       .  S
Cd69         O75   2.471       .  S
Cd69         O74   2.450       .  S
Cd69         O70   2.460       .  S
Cd69         O73   2.496       .  S
Cd69         O71   2.458       .  S
C72          O76   1.262       .  A
C72        C1578   1.487       .  S
C77          C78   1.536       .  S
C77          C83   1.534       .  S
C77          C81   1.549       .  S
C77        C1725   1.546       .  S
C78          H85   1.087       .  S
C78          C79   1.366       .  D
C79          C80   1.543       .  S
C79        C1498   1.487       .  S
C80          C84   1.544       .  S
C80          C82   1.540       .  S
C80          H86   1.111       .  S
C81          H87   1.079       .  S
C81          C82   1.365       .  D
C83          H88   1.087       .  S
C83          C84   1.365       .  D
C84        C1482   1.490       .  S
C89          C90   1.539       .  S
C89          C95   1.550       .  S
C89          C93   1.538       .  S
C89        C1466   1.553       .  S
C90          H97   1.086       .  S
C90          C91   1.364       .  D
C91          C92   1.537       .  S
C91        C1501   1.484       .  S
C92          C96   1.541       .  S
C92          C94   1.538       .  S
C92          H98   1.110       .  S
C93          H99   1.085       .  S
C93          C94   1.367       .  D
C95         H100   1.080       .  S
C95          C96   1.368       .  D
C96        C1450   1.494       .  S
C101        C102   1.532       .  S
C101        C107   1.547       .  S
C101        C105   1.529       .  S
C101       C1469   1.551       .  S
C102        H109   1.085       .  S
C102        C103   1.373       .  D
C103        C104   1.559       .  S
C103       C1434   1.519       .  S
C104        C108   1.548       .  S
C104        C106   1.549       .  S
C104        H110   1.105       .  S
C105        H111   1.085       .  S
C105        C106   1.363       .  D
C106        C116   1.479       .  S
C107        H112   1.081       .  S
C107        C108   1.366       .  D
C108       C1418   1.494       .  S
O113        C116   1.266       .  A
O113       Cd118   2.439       .  S
C114        O123   1.266       .  A
C114        O119   1.264       .  A
C114       C1386   1.486       .  S
O115        C121   1.269       .  A
O115       Cd118   2.483       .  S
C116        O124   1.264       .  A
C117        O122   1.266       .  A
C117        O120   1.263       .  A
C117       C1370   1.501       .  S
Cd118       O125   2.427       .  S
Cd118       O124   2.507       .  S
Cd118       O123   2.461       .  S
Cd118       O119   2.453       .  S
Cd118       O122   2.506       .  S
Cd118       O120   2.487       .  S
C121        O125   1.264       .  A
C121       C1402   1.490       .  S
O126        C129   1.266       .  A
O126       Cd131   2.461       .  S
C127        C144   1.477       .  S
C127        O136   1.265       .  A
C127        O132   1.266       .  A
O128        C134   1.267       .  A
O128       Cd131   2.493       .  S
C129        O137   1.264       .  A
C129       C1354   1.489       .  S
C130        O135   1.269       .  A
C130        O133   1.264       .  A
C130       C1405   1.492       .  S
Cd131       O138   2.481       .  S
Cd131       O137   2.456       .  S
Cd131       O136   2.506       .  S
Cd131       O132   2.428       .  S
Cd131       O135   2.475       .  S
Cd131       O133   2.434       .  S
C134        O138   1.263       .  A
C134       C1338   1.497       .  S
C139        C140   1.533       .  S
C139        C145   1.549       .  S
C139        C143   1.526       .  S
C139       C1693   1.548       .  S
C140        H147   1.084       .  S
C140        C141   1.369       .  D
C141        C142   1.553       .  S
C141       C1437   1.511       .  S
C142        C146   1.542       .  S
C142        C144   1.551       .  S
C142        H148   1.110       .  S
C143        H149   1.085       .  S
C143        C144   1.363       .  D
C145        H150   1.081       .  S
C145        C146   1.366       .  D
C146       C1322   1.485       .  S
C151        C152   1.537       .  S
C151        C157   1.548       .  S
C151        C155   1.541       .  S
C151       C1290   1.553       .  S
C152        H159   1.087       .  S
C152        C153   1.369       .  D
C153        C154   1.544       .  S
C153       C1709   1.495       .  S
C154        C158   1.536       .  S
C154        C156   1.541       .  S
C154        H160   1.108       .  S
C155       H1913   1.086       .  S
C155        C156   1.370       .  D
C156        C178   1.479       .  S
C157       H1914   1.079       .  S
C157        C158   1.361       .  D
C158       C1306   1.485       .  S
H161       C1907   1.086   1_554  S
H162       C1909   1.081   1_554  S
C163        C164   1.535       .  S
C163        C169   1.532       .  S
C163        C167   1.548       .  S
C163       C1274   1.548       .  S
C164        H171   1.086       .  S
C164        C165   1.366       .  D
C165        C166   1.545       .  S
C165       C1677   1.491       .  S
C166        C170   1.547       .  S
C166        C168   1.539       .  S
C166        H172   1.107       .  S
C167       H1925   1.080       .  S
C167        C168   1.366       .  D
C168        C189   1.474       .  S
C169        H174   1.086   1_554  S
C169        C170   1.366       .  D
C170       C1309   1.498       .  S
H173       C1919   1.080       .  S
O175        C178   1.265       .  A
O175      Cd1932   2.468       .  S
C176        O185   1.265       .  A
C176        O181   1.264       .  A
C176       C1642   1.485       .  S
O177        C183   1.264       .  A
O177      Cd1932   2.507       .  S
C178        O186   1.265       .  A
C179        O182   1.263       .  A
C179       O1936   1.269   1_554  A
C179       C1261   1.488       .  S
Cd180       O187   2.491   1_554  S
Cd180       O185   2.443       .  S
Cd180       O181   2.469       .  S
Cd180       O182   2.430       .  S
Cd180      O1927   2.472       .  S
Cd180      O1929   2.480   1_554  S
Cd180      O1938   2.476   1_554  S
Cd180      O1936   2.478   1_554  S
C183       O1939   1.264       .  A
C183       C1242   1.499       .  S
O184       C1931   1.269       .  A
O184      Cd1932   2.488       .  S
O186      Cd1932   2.487       .  S
O187       C1935   1.265       .  A
O188        C191   1.264       .  A
O188       Cd193   2.447       .  S
C189        O198   1.264       .  A
C189        O194   1.265   1_554  A
O190       C1948   1.268       .  A
O190      Cd1945   2.468   1_554  S
C191        O199   1.266       .  A
C191       C1613   1.489       .  S
C192        O197   1.264       .  A
C192       O1947   1.262       .  A
C192       C1226   1.492       .  S
Cd193       O200   2.427       .  S
Cd193       O199   2.461       .  S
Cd193       O195   2.459       .  S
Cd193      O1942   2.480       .  S
Cd193      O1950   2.472       .  S
Cd193      O1946   2.448       .  S
Cd193      O1949   2.481       .  S
O194      Cd1945   2.447       .  S
O195       C1944   1.261       .  A
C196        O200   1.263       .  A
C196       O1942   1.269       .  A
C196       C3010   1.485       .  S
O197      Cd1945   2.468   1_554  S
O198      Cd1945   2.477   1_554  S
O201        C204   1.265       .  A
O201       Cd206   2.456       .  S
C202        C244   1.479       .  S
C202        O211   1.266       .  A
C202        O207   1.264       .  A
O203       C1961   1.268       .  A
O203      Cd1958   2.476       .  S
C204        O212   1.264       .  A
C204       C1533   1.487       .  S
C205        O210   1.265       .  A
C205       O1960   1.262       .  A
C205       C1194   1.493       .  S
Cd206       O213   2.453       .  S
Cd206       O212   2.457       .  S
Cd206       O208   2.469   1_554  S
Cd206      O1955   2.470   1_554  S
Cd206      O1963   2.481   1_554  S
Cd206      O1959   2.461       .  S
Cd206      O1962   2.486   1_554  S
O207      Cd1958   2.446       .  S
O208       C1957   1.262       .  A
C209        O213   1.265       .  A
C209       O1955   1.267   1_554  A
C209       C1213   1.491       .  S
O210      Cd1958   2.481       .  S
O211      Cd1958   2.499       .  S
O214        C217   1.263       .  A
O214       Cd219   2.454       .  S
C215        C232   1.479       .  S
C215        O224   1.265       .  A
C215        O220   1.265       .  A
O216        C222   1.268       .  A
O216      Cd1971   2.479   1_554  S
C217        O225   1.266       .  A
C217       C1565   1.486       .  S
C218        O223   1.266       .  A
C218       O1973   1.262       .  A
C218       C1178   1.494       .  S
Cd219       O226   2.432       .  S
Cd219       O225   2.451       .  S
Cd219       O221   2.471       .  S
Cd219      O1968   2.481       .  S
Cd219      O1976   2.484       .  S
Cd219      O1972   2.437       .  S
Cd219      O1975   2.487       .  S
O220      Cd1971   2.436   1_554  S
O221       C1970   1.260       .  A
C222       O1978   1.264   1_554  A
C222       C1210   1.486       .  S
O223      Cd1971   2.483   1_554  S
O224      Cd1971   2.502   1_554  S
O226       C1974   1.265       .  A
C227        C228   1.539       .  S
C227        C233   1.538       .  S
C227        C231   1.548       .  S
C227       C1293   1.553       .  S
C228        H235   1.086       .  S
C228        C229   1.369       .  D
C229        C230   1.544       .  S
C229       C1485   1.492       .  S
C230        C234   1.540       .  S
C230        C232   1.538       .  S
C230        H236   1.109       .  S
C231        H237   1.078       .  S
C231        C232   1.364       .  D
C233        H238   1.087       .  S
C233        C234   1.366       .  D
C234       C1162   1.487       .  S
C239        C240   1.536       .  S
C239        C245   1.535       .  S
C239        C243   1.547       .  S
C239       C1146   1.551       .  S
C240        H247   1.086       .  S
C240        C241   1.367       .  D
C241        C242   1.544       .  S
C241       C1453   1.492       .  S
C242        C246   1.546       .  S
C242        C244   1.541       .  S
C242        H248   1.107       .  S
C243       H2001   1.080       .  S
C243        C244   1.368       .  D
C245       H2002   1.086       .  S
C245        C246   1.366       .  D
C246       C1165   1.498       .  S
H249       C1995   1.080       .  S
H250       C1997   1.086   1_554  S
C251        C252   1.536       .  S
C251        C257   1.547       .  S
C251        C255   1.545       .  S
C251       C1149   1.553       .  S
C252        H259   1.086       .  S
C252        C253   1.367       .  D
C253        C254   1.542       .  S
C253       C1421   1.492       .  S
C254        C258   1.539       .  S
C254        C256   1.541       .  S
C254        H260   1.111       .  S
C255        H261   1.086       .  S
C255        C256   1.371       .  D
C256        C264   1.479       .  S
C257        H262   1.080   1_554  S
C257        C258   1.360       .  D
C258       C1130   1.487       .  S
O263        C266   1.266       .  A
O263       Cd268   2.454       .  S
C264        O273   1.265       .  A
C264        O269   1.266   1_554  A
O265        C271   1.268       .  A
O265      Cd2020   2.481   1_554  S
C266        O274   1.264       .  A
C266       C1389   1.485       .  S
C267        O272   1.263       .  A
C267       O2022   1.265       .  A
C267       C1098   1.497       .  S
Cd268       O275   2.445       .  S
Cd268       O274   2.455       .  S
Cd268       O270   2.472       .  S
Cd268      O2017   2.477       .  S
Cd268      O2025   2.478       .  S
Cd268      O2021   2.467       .  S
Cd268      O2024   2.484       .  S
O269      Cd2020   2.477       .  S
O270       C2019   1.264       .  A
C271       O2027   1.265   1_554  A
C271       C1117   1.493       .  S
O272      Cd2020   2.498   1_554  S
O273      Cd2020   2.477   1_554  S
O275       C2023   1.265       .  A
O276        C279   1.265       .  A
O276       Cd281   2.466       .  S
C277        C294   1.476       .  S
C277        O286   1.264       .  A
C277        O282   1.265       .  A
O278       C2036   1.268       .  A
O278      Cd2033   2.493       .  S
C279        O287   1.266       .  A
C279       C1357   1.490       .  S
C280        O285   1.266       .  A
C280       O2035   1.263       .  A
C280       C1082   1.497       .  S
Cd281       O288   2.434       .  S
Cd281       O287   2.449       .  S
Cd281       O283   2.469   1_554  S
Cd281      O2030   2.487   1_554  S
Cd281      O2038   2.470   1_554  S
Cd281      O2034   2.455       .  S
Cd281      O2037   2.496   1_554  S
O282      Cd2033   2.472       .  S
O283       C2032   1.262       .  A
C284        O288   1.264       .  A
C284       O2030   1.269   1_554  A
C284       C1114   1.490       .  S
O285      Cd2033   2.504       .  S
O286      Cd2033   2.468       .  S
C289        C290   1.535       .  S
C289        C295   1.550       .  S
C289        C293   1.542       .  S
C289       C1277   1.548       .  S
C290        H297   1.086       .  S
C290        C291   1.363       .  D
C291        C292   1.540       .  S
C291       C1325   1.485       .  S
C292        C296   1.540       .  S
C292        C294   1.538       .  S
C292        H298   1.111       .  S
C293       H2051   1.086       .  S
C293        C294   1.366       .  D
C295       H2052   1.080       .  S
C295        C296   1.366       .  D
C296       C1133   1.489       .  S
H299       C2045   1.086   1_554  S
H300       C2047   1.079   1_554  S
O301        C304   1.265       .  A
O301      Cd2058   2.460   1_554  S
C302        O311   1.265       .  A
C302        O307   1.265       .  A
C302       C1053   1.491       .  S
O303        C309   1.270   1_554  A
O303      Cd2058   2.490   1_554  S
C304        C332   1.475       .  S
C304        O312   1.265       .  A
C305        O310   1.264       .  A
C305       O2060   1.265       .  A
C305       C1229   1.491       .  S
Cd306       O313   2.423       .  S
Cd306       O311   2.460       .  S
Cd306       O307   2.467       .  S
Cd306       O308   2.459       .  S
Cd306      O2053   2.464       .  S
Cd306      O2055   2.481       .  S
Cd306      O2064   2.477       .  S
Cd306      O2062   2.482       .  S
O308       C2057   1.264       .  A
C309       O2065   1.261       .  A
C309       C1069   1.488       .  S
O310      Cd2058   2.476   1_554  S
O312      Cd2058   2.466   1_554  S
O313       C2061   1.263       .  A
O314        C317   1.266       .  A
O314      Cd2071   2.456       .  S
C315        O324   1.265       .  A
C315        O320   1.263       .  A
C315       C1037   1.480       .  S
O316        C322   1.270       .  A
O316      Cd2071   2.476       .  S
C317        C344   1.478       .  S
C317        O325   1.265       .  A
C318        O323   1.264       .  A
C318       O2073   1.263       .  A
C318       C1197   1.493       .  S
Cd319       O326   2.437       .  S
Cd319       O324   2.457       .  S
Cd319       O320   2.437       .  S
Cd319       O321   2.484   1_554  S
Cd319      O2066   2.470       .  S
Cd319      O2068   2.468   1_554  S
Cd319      O2077   2.489   1_554  S
Cd319      O2075   2.493   1_554  S
O321       C2070   1.264       .  A
C322       O2078   1.262       .  A
C322       C2818   1.491       .  S
O323      Cd2071   2.492       .  S
O325      Cd2071   2.484       .  S
O326       C2074   1.263       .  A
C327        C328   1.538       .  S
C327        C333   1.550       .  S
C327        C331   1.539       .  S
C327       C1002   1.552       .  S
C328        H335   1.086       .  S
C328        C329   1.365       .  D
C329        C330   1.541       .  S
C329       C1018   1.491       .  S
C330        C334   1.541       .  S
C330        C332   1.538       .  S
C330        H336   1.109       .  S
C331        H337   1.085       .  S
C331        C332   1.366       .  D
C333        H338   1.080       .  S
C333        C334   1.366       .  D
C334        C986   1.490       .  S
C339        C340   1.550       .  S
C339        C345   1.537       .  S
C339        C343   1.537       .  S
C339        C970   1.554       .  S
C340       H2099   1.077       .  S
C340        C341   1.361       .  D
C341        C342   1.541       .  S
C341       C1021   1.490       .  S
C342        C346   1.546       .  S
C342        C344   1.542       .  S
C342        H348   1.110       .  S
C343       H2101   1.086       .  S
C343        C344   1.367       .  D
C345        H350   1.086       .  S
C345        C346   1.367       .  D
C346        C957   1.493       .  S
H347       C2092   1.078   1_554  S
H349       C2095   1.085   1_554  S
O351        C354   1.267       .  A
O351       Cd356   2.466       .  S
C352        C394   1.483       .  S
C352        O361   1.265       .  A
C352        O357   1.267       .  A
O353        C359   1.263       .  A
O353      Cd2108   2.480       .  S
C354        O362   1.263       .  A
C354        C922   1.485       .  S
C355        O358   1.265       .  A
C355       O2112   1.269   1_554  A
C355        C941   1.486       .  S
Cd356       O363   2.478   1_554  S
Cd356       O362   2.437       .  S
Cd356       O358   2.418       .  S
Cd356      O2105   2.490   1_554  S
Cd356      O2113   2.488   1_554  S
Cd356      O2109   2.464       .  S
Cd356      O2112   2.469   1_554  S
O357      Cd2108   2.474       .  S
C359       O2115   1.266       .  A
C359       C1085   1.498       .  S
O360       C2107   1.268       .  A
O360      Cd2108   2.467       .  S
O361      Cd2108   2.494       .  S
O363       C2111   1.265       .  A
O364        C367   1.266       .  A
O364      Cd2121   2.456       .  S
C365        O374   1.264       .  A
C365        O370   1.264       .  A
C365        C909   1.486       .  S
O366        C372   1.268       .  A
O366      Cd2121   2.465       .  S
C367        C382   1.478       .  S
C367        O375   1.264       .  A
C368        O373   1.263       .  A
C368       O2123   1.265       .  A
C368       C1181   1.494       .  S
Cd369       O376   2.414       .  S
Cd369       O374   2.441       .  S
Cd369       O370   2.463       .  S
Cd369       O371   2.488       .  S
Cd369      O2116   2.466       .  S
Cd369      O2118   2.463       .  S
Cd369      O2127   2.478       .  S
Cd369      O2125   2.460       .  S
O371       C2120   1.265       .  A
C372       O2128   1.265   1_554  A
C372        C938   1.486       .  S
O373      Cd2121   2.478       .  S
O375      Cd2121   2.484       .  S
O376       C2124   1.266       .  A
C377        C378   1.539       .  S
C377        C383   1.546       .  S
C377        C381   1.536       .  S
C377        C874   1.550       .  S
C378        H385   1.086       .  S
C378        C379   1.365       .  D
C379        C380   1.546       .  S
C379        C890   1.496       .  S
C380        C384   1.542       .  S
C380        C382   1.543       .  S
C380        H386   1.109       .  S
C381        H387   1.085       .  S
C381        C382   1.366       .  D
C383        H388   1.079       .  S
C383        C384   1.366       .  D
C384        C861   1.490       .  S
C389        C390   1.535       .  S
C389        C395   1.550       .  S
C389        C393   1.538       .  S
C389       C1005   1.553       .  S
C390       H2149   1.086       .  S
C390        C391   1.364       .  D
C391        C392   1.546       .  S
C391        C893   1.494       .  S
C392        C396   1.545       .  S
C392        C394   1.544       .  S
C392        H398   1.108       .  S
C393       H2151   1.085       .  S
C393        C394   1.366       .  D
C395        H400   1.080       .  S
C395        C396   1.369       .  D
C396        C842   1.495       .  S
H397       C2142   1.085   1_554  S
H399       C2145   1.086       .  S
C401        C402   1.535       .  S
C401        C407   1.549       .  S
C401        C405   1.527       .  S
C401        C877   1.545       .  S
C402       H2161   1.085       .  S
C402        C403   1.370       .  D
C403        C404   1.549       .  S
C403        C826   1.502       .  S
C404        C408   1.536       .  S
C404        C406   1.548       .  S
C404        H410   1.110       .  S
C405       H2163   1.087       .  S
C405        C406   1.363       .  D
C406        C414   1.477       .  S
C407        H412   1.080       .  S
C407        C408   1.365       .  D
C408        C813   1.483       .  S
H409       C2154   1.085   1_554  S
H411       C2157   1.087   1_554  S
O413        C416   1.263       .  A
O413       Cd418   2.454       .  S
C414        O423   1.265       .  A
C414       O2171   1.266       .  A
O415       C2173   1.267       .  A
O415      Cd2170   2.511       .  S
C416        O424   1.266       .  A
C416        C778   1.490       .  S
C417        O420   1.265       .  A
C417       O2174   1.268   1_554  A
C417        C797   1.491       .  S
Cd418       O425   2.473   1_554  S
Cd418       O424   2.471       .  S
Cd418       O419   2.441       .  S
Cd418       O420   2.436       .  S
Cd418      O2167   2.499   1_554  S
Cd418      O2175   2.505   1_554  S
Cd418      O2174   2.473   1_554  S
O419       C2166   1.267   1_554  A
C421        O425   1.262       .  A
C421       O2167   1.266       .  A
C421       C1245   1.497       .  S
O422       C2169   1.270       .  A
O422      Cd2170   2.492       .  S
O423      Cd2170   2.505       .  S
O426        C429   1.262       .  A
O426       Cd431   2.441       .  S
C427        C444   1.477       .  S
C427        O436   1.265       .  A
C427        O432   1.266   1_554  A
O428        C434   1.265       .  A
O428      Cd2183   2.496   1_554  S
C429        O437   1.266       .  A
C429        C765   1.489       .  S
C430        O435   1.267       .  A
C430       O2185   1.265   1_554  A
C430        C794   1.490       .  S
Cd431       O438   2.482       .  S
Cd431       O437   2.471       .  S
Cd431       O433   2.444       .  S
Cd431      O2180   2.475       .  S
Cd431      O2188   2.476       .  S
Cd431      O2184   2.449       .  S
Cd431      O2187   2.475       .  S
O432      Cd2183   2.446       .  S
O433       C2182   1.265       .  A
C434       O2190   1.263       .  A
C434       C1101   1.499       .  S
O435      Cd2183   2.475   1_554  S
O436      Cd2183   2.489   1_554  S
O438       C2186   1.264       .  A
C439        C440   1.532       .  S
C439        C445   1.536       .  S
C439        C443   1.543       .  S
C439        C973   1.552       .  S
C440        H447   1.086   1_554  S
C440        C441   1.372       .  D
C441        C442   1.555       .  S
C441        C829   1.519       .  S
C442        C446   1.539       .  S
C442        C444   1.549       .  S
C442        H448   1.103       .  S
C443        H449   1.081       .  S
C443        C444   1.369       .  D
C445        H450   1.086       .  S
C445        C446   1.364       .  D
C446        C746   1.492       .  S
O451        C454   1.266       .  A
O451       Cd456   2.457       .  S
C452        C482   1.481       .  S
C452        O461   1.265       .  A
C452        O457   1.266       .  A
O453        C459   1.269       .  A
O453       Cd456   2.484       .  S
C454        O462   1.264       .  A
C454        C762   1.485       .  S
C455        O460   1.264       .  A
C455        O458   1.265       .  A
C455       C1373   1.502       .  S
Cd456       O463   2.437       .  S
Cd456       O462   2.462       .  S
Cd456       O461   2.508       .  S
Cd456       O457   2.451       .  S
Cd456       O460   2.498       .  S
Cd456       O458   2.495       .  S
C459        O463   1.265       .  A
C459        C733   1.492       .  S
O464        C467   1.266       .  A
O464       Cd469   2.445       .  S
C465        C494   1.472       .  S
C465        O474   1.264       .  A
C465        O470   1.266       .  A
O466        C472   1.270       .  A
O466       Cd469   2.483       .  S
C467        O475   1.264       .  A
C467        C781   1.487       .  S
C468        O473   1.267       .  A
C468        O471   1.261       .  A
C468       C1629   1.493       .  S
Cd469       O476   2.421       .  S
Cd469       O475   2.458       .  S
Cd469       O474   2.477       .  S
Cd469       O470   2.431       .  S
Cd469       O473   2.484       .  S
Cd469       O471   2.461       .  S
C472        O476   1.264       .  A
C472        C730   1.490       .  S
C477        C478   1.534       .  S
C477        C483   1.527       .  S
C477        C481   1.542       .  S
C477        C698   1.546       .  S
C478        H485   1.087       .  S
C478        C479   1.366       .  D
C479        C480   1.550       .  S
C479        C749   1.496       .  S
C480        C484   1.557       .  S
C480        C482   1.552       .  S
C480        H486   1.110       .  S
C481        H487   1.081       .  S
C481        C482   1.370       .  D
C483        H488   1.085       .  S
C483        C484   1.367       .  D
C484        C714   1.511       .  S
C489        C490   1.547       .  S
C489        C495   1.533       .  S
C489        C493   1.529       .  S
C489        C682   1.548       .  S
C490        H497   1.081       .  S
C490        C491   1.367       .  D
C491        C492   1.543       .  S
C491        C810   1.489       .  S
C492        C496   1.555       .  S
C492        C494   1.545       .  S
C492        H498   1.104       .  S
C493        H499   1.087       .  S
C493        C494   1.362       .  D
C495        H500   1.085       .  S
C495        C496   1.375       .  D
C496        C717   1.520       .  S
C501        C502   1.533       .  S
C501        C507   1.550       .  S
C501        C505   1.532       .  S
C501        C653   1.547       .  S
C502        H509   1.086       .  S
C502        C503   1.365       .  D
C503        C504   1.544       .  S
C503        C845   1.492       .  S
C504        C508   1.543       .  S
C504        C506   1.546       .  S
C504        H510   1.109       .  S
C505        H511   1.086       .  S
C505        C506   1.363       .  D
C506        C539   1.479       .  S
C507        H512   1.080       .  S
C507        C508   1.369       .  D
C508        C666   1.494       .  S
C513        C514   1.550       .  S
C513        C519   1.543       .  S
C513        C517   1.536       .  S
C513        C685   1.553       .  S
C514        H521   1.079       .  S
C514        C515   1.365       .  D
C515        C516   1.537       .  S
C515        C858   1.490       .  S
C516        C520   1.540       .  S
C516        C518   1.543       .  S
C516        H522   1.109       .  S
C517        H523   1.086       .  S
C517        C518   1.365       .  D
C518        C526   1.477       .  S
C519        H524   1.086       .  S
C519        C520   1.369       .  D
C520        C669   1.493       .  S
O525        C528   1.267       .  A
O525       Cd530   2.458       .  S
C526        O535   1.263       .  A
C526        O531   1.266       .  A
O527        C533   1.268       .  A
O527       Cd530   2.456       .  S
C528        O536   1.263       .  A
C528        C906   1.487       .  S
C529        O534   1.265       .  A
C529        O532   1.263       .  A
C529       C1549   1.494       .  S
Cd530       O537   2.439       .  S
Cd530       O536   2.439       .  S
Cd530       O535   2.471       .  S
Cd530       O531   2.471       .  S
Cd530       O534   2.483       .  S
Cd530       O532   2.480       .  S
C533        O537   1.265       .  A
C533        C634   1.481       .  S
O538        C541   1.265       .  A
O538       Cd543   2.481       .  S
C539        O548   1.264       .  A
C539        O544   1.267       .  A
O540        C546   1.269       .  A
O540       Cd543   2.479       .  S
C541        O549   1.265       .  A
C541        C925   1.490       .  S
C542        O547   1.263       .  A
C542        O545   1.266       .  A
C542       C1341   1.498       .  S
Cd543       O550   2.416       .  S
Cd543       O549   2.443       .  S
Cd543       O548   2.489       .  S
Cd543       O544   2.451       .  S
Cd543       O547   2.472       .  S
Cd543       O545   2.496       .  S
C546        O550   1.265       .  A
C546        C637   1.488       .  S
O551        C554   1.267       .  A
O551       Cd556   2.461       .  S
C552        C594   1.474       .  S
C552        O561   1.263       .  A
C552        O557   1.265       .  A
O553        C559   1.270       .  A
O553       Cd556   2.480       .  S
C554        O562   1.265       .  A
C554       C1050   1.491       .  S
C555        O560   1.264       .  A
C555        O558   1.263       .  A
C555       C1597   1.489       .  S
Cd556       O563   2.428       .  S
Cd556       O562   2.455       .  S
Cd556       O561   2.476       .  S
Cd556       O557   2.450       .  S
Cd556       O560   2.481       .  S
Cd556       O558   2.470       .  S
C559        O563   1.262       .  A
C559        C621   1.491       .  S
O564        C567   1.266       .  A
O564       Cd569   2.456       .  S
C565        O574   1.264       .  A
C565        O570   1.267       .  A
C565       C1034   1.485       .  S
O566        C572   1.265       .  A
O566       Cd569   2.495       .  S
C567        C582   1.477       .  S
C567        O575   1.265       .  A
C568        O573   1.270       .  A
C568        O571   1.262       .  A
C568        C618   1.489       .  S
Cd569       O576   2.462       .  S
Cd569       O575   2.483       .  S
Cd569       O574   2.451       .  S
Cd569       O570   2.453       .  S
Cd569       O573   2.480       .  S
Cd569       O571   2.433       .  S
C572        O576   1.264       .  A
C572       C1517   1.496       .  S
C577        C578   1.537       .  S
C577        C583   1.551       .  S
C577        C581   1.536       .  S
C577        C701   1.552       .  S
C578        H585   1.085       .  S
C578        C579   1.368       .  D
C579        C580   1.545       .  S
C579        C954   1.491       .  S
C580        C584   1.537       .  S
C580        C582   1.541       .  S
C580        H586   1.111       .  S
C581        H587   1.086       .  S
C581        C582   1.366       .  D
C583        H588   1.079       .  S
C583        C584   1.362       .  D
C584        C605   1.486       .  S
C589        C590   1.536       .  S
C589        C595   1.535       .  S
C589        C593   1.551       .  S
C589        C650   1.548       .  S
C590        H597   1.085       .  S
C590        C591   1.366       .  D
C591        C592   1.541       .  S
C591        C989   1.487       .  S
C592        C596   1.542       .  S
C592        C594   1.537       .  S
C592        H598   1.111       .  S
C593        H599   1.080       .  S
C593        C594   1.366       .  D
C595        H600   1.086       .  S
C595        C596   1.365       .  D
C596        C602   1.490       .  S
C601        C602   1.401       .  A
C601        C606   1.406       .  A
C601        H608   1.084       .  S
C602        C603   1.420       .  A
C603        C610   1.507       .  S
C603        C604   1.406       .  A
C604        C605   1.399       .  A
C604        H609   1.084       .  S
C605        C606   1.417       .  A
C606        C607   1.508       .  S
C607        H611   1.111       .  S
C607        H612   1.111       .  S
C607        H613   1.108       .  S
C610        H614   1.108       .  S
C610        H615   1.110       .  S
C610        H616   1.111       .  S
C617        C618   1.403       .  A
C617        C622   1.404       .  A
C617        H624   1.084       .  S
C618        C619   1.420       .  A
C619        C626   1.509       .  S
C619        C620   1.405       .  A
C620        C621   1.405       .  A
C620        H625   1.084       .  S
C621        C622   1.421       .  A
C622        C623   1.509       .  S
C623        H627   1.111       .  S
C623        H628   1.110       .  S
C623        H629   1.110       .  S
C626        H630   1.110       .  S
C626        H631   1.109       .  S
C626        H632   1.111       .  S
C633        C634   1.405       .  A
C633        C638   1.406       .  A
C633        H640   1.084       .  S
C634        C635   1.414       .  A
C635        C642   1.509       .  S
C635        C636   1.400       .  A
C636        C637   1.407       .  A
C636        H641   1.084       .  S
C637        C638   1.418       .  A
C638        C639   1.508       .  S
C639        H643   1.111       .  S
C639        H644   1.110       .  S
C639        H645   1.110       .  S
C642        H646   1.111       .  S
C642        H647   1.110       .  S
C642        H648   1.111       .  S
C649        C650   1.410       .  A
C649        C654   1.405       .  A
C649        H656   1.072       .  S
C650        C651   1.426       .  A
C651        C658   1.517       .  S
C651        C652   1.407       .  A
C652        C653   1.410       .  A
C652        H657   1.074       .  S
C653        C654   1.425       .  A
C654        C655   1.518       .  S
C655        H659   1.111       .  S
C655        H660   1.105       .  S
C655        H661   1.106       .  S
C658        H662   1.104       .  S
C658        H663   1.106       .  S
C658        H664   1.111       .  S
C665        C666   1.405       .  A
C665        C670   1.405       .  A
C665        H672   1.084       .  S
C666        C667   1.414       .  A
C667        C674   1.504       .  S
C667        C668   1.407       .  A
C668        C669   1.405       .  A
C668        H673   1.084       .  S
C669        C670   1.415       .  A
C670        C671   1.505       .  S
C671        H675   1.111       .  S
C671        H676   1.104       .  S
C671        H677   1.107       .  S
C674        H678   1.105       .  S
C674        H679   1.108       .  S
C674        H680   1.111       .  S
C681        C682   1.411       .  A
C681        C686   1.411       .  A
C681        H688   1.077       .  S
C682        C683   1.426       .  A
C683        C690   1.516       .  S
C683        C684   1.403       .  A
C684        C685   1.410       .  A
C684        H689   1.073       .  S
C685        C686   1.427       .  A
C686        C687   1.513       .  S
C687        H691   1.111       .  S
C687        H692   1.110       .  S
C687        H693   1.102       .  S
C690        H694   1.101       .  S
C690        H695   1.111       .  S
C690        H696   1.111       .  S
C697        C698   1.411       .  A
C697        C702   1.412       .  A
C697        H704   1.075       .  S
C698        C699   1.426       .  A
C699        C706   1.514       .  S
C699        C700   1.399       .  A
C700        C701   1.408       .  A
C700        H705   1.072       .  S
C701        C702   1.427       .  A
C702        C703   1.515       .  S
C703        H707   1.111       .  S
C703        H708   1.106       .  S
C703        H709   1.105       .  S
C706        H710   1.111       .  S
C706        H711   1.096       .  S
C706        H712   1.111       .  S
C713        C714   1.409       .  A
C713        C718   1.424       .  A
C713        H720   1.083       .  S
C714        C715   1.417       .  A
C715        C722   1.507       .  S
C715        C716   1.394       .  A
C716        C717   1.407       .  A
C716        H721   1.083       .  S
C717        C718   1.429       .  A
C718        C719   1.505       .  S
C719        H723   1.111       .  S
C719        H724   1.107       .  S
C719        H725   1.109       .  S
C722        H726   1.104       .  S
C722        H727   1.111       .  S
C722        H728   1.110       .  S
C729        C730   1.408       .  A
C729        C734   1.404       .  A
C729        H736   1.084       .  S
C730        C731   1.416       .  A
C731        C738   1.508       .  S
C731        C732   1.405       .  A
C732        C733   1.408       .  A
C732        H737   1.084       .  S
C733        C734   1.417       .  A
C734        C735   1.508       .  S
C735        H739   1.111       .  S
C735        H740   1.110       .  S
C735        H741   1.110       .  S
C738        H742   1.110       .  S
C738        H743   1.110       .  S
C738        H744   1.111       .  S
C745        C746   1.405       .  A
C745        C750   1.413       .  A
C745        H752   1.084       .  S
C746        C747   1.415       .  A
C747        C754   1.508       .  S
C747        C748   1.402       .  A
C748        C749   1.405       .  A
C748        H753   1.085       .  S
C749        C750   1.418       .  A
C750        C751   1.505       .  S
C751        H755   1.110       .  S
C751        H756   1.105       .  S
C751        H757   1.110       .  S
C754        H758   1.108       .  S
C754        H759   1.110       .  S
C754        H760   1.110       .  S
C761        C762   1.403       .  A
C761        C766   1.402       .  A
C761        H768   1.084       .  S
C762        C763   1.416       .  A
C763        C770   1.508       .  S
C763        C764   1.404       .  A
C764        C765   1.407       .  A
C764        H769   1.084       .  S
C765        C766   1.420       .  A
C766        C767   1.509       .  S
C767        H771   1.111       .  S
C767        H772   1.110       .  S
C767        H773   1.110       .  S
C770        H774   1.109       .  S
C770        H775   1.111       .  S
C770        H776   1.111       .  S
C777        C778   1.407       .  A
C777        C782   1.405       .  A
C777        H784   1.084       .  S
C778        C779   1.419       .  A
C779        C786   1.509       .  S
C779        C780   1.402       .  A
C780        C781   1.404       .  A
C780        H785   1.084       .  S
C781        C782   1.418       .  A
C782        C783   1.509       .  S
C783        H787   1.111       .  S
C783        H788   1.110       .  S
C783        H789   1.110       .  S
C786        H790   1.110       .  S
C786        H791   1.110       .  S
C786        H792   1.111       .  S
C793        C798   1.406       .  A
C793       C2546   1.407       .  A
C793        H800   1.084       .  S
C794        C795   1.417       .  A
C794       C2545   1.407   1_554  A
C795        C802   1.508       .  S
C795        C796   1.404       .  A
C796        C797   1.408       .  A
C796        H801   1.084       .  S
C797       C2550   1.417   1_554  A
C798        C799   1.507       .  S
C798       C2549   1.417       .  A
C799        H803   1.111       .  S
C799        H804   1.110       .  S
C799        H805   1.110       .  S
C802        H806   1.110       .  S
C802        H807   1.110       .  S
C802        H808   1.111       .  S
C809        C810   1.404       .  A
C809        C814   1.406       .  A
C809        H816   1.084       .  S
C810        C811   1.419       .  A
C811        C818   1.505       .  S
C811        C812   1.406       .  A
C812        C813   1.400       .  A
C812        H817   1.085       .  S
C813        C814   1.411       .  A
C814        C815   1.506       .  S
C815        H819   1.111       .  S
C815        H820   1.109       .  S
C815        H821   1.111       .  S
C818        H822   1.110       .  S
C818        H823   1.101       .  S
C818        H824   1.110       .  S
C825        C830   1.418       .  A
C825       C2578   1.408   1_554  A
C825        H832   1.083   1_554  S
C826        C827   1.417       .  A
C826       C2577   1.408       .  A
C827        C834   1.511       .  S
C827        C828   1.397       .  A
C828       C2581   1.409       .  A
C828        H833   1.083       .  S
C829        C830   1.425       .  A
C829       C2580   1.410       .  A
C830        C831   1.506       .  S
C831        H835   1.111       .  S
C831        H836   1.110       .  S
C831        H837   1.107       .  S
C834        H838   1.111       .  S
C834        H839   1.106       .  S
C834        H840   1.110       .  S
C841        C842   1.403       .  A
C841        C846   1.402       .  A
C841        H848   1.085       .  S
C842        C843   1.415       .  A
C843        C850   1.505       .  S
C843        C844   1.411       .  A
C844        C845   1.404       .  A
C844        H849   1.084       .  S
C845        C846   1.419       .  A
C846        C847   1.509       .  S
C847        H851   1.111       .  S
C847        H852   1.107       .  S
C847        H853   1.110       .  S
C850        H854   1.108       .  S
C850        H855   1.110       .  S
C850        H856   1.111       .  S
C857        C858   1.405       .  A
C857        C862   1.411       .  A
C857        H864   1.084       .  S
C858        C859   1.419       .  A
C859        C866   1.510       .  S
C859        C860   1.399       .  A
C860        C861   1.402       .  A
C860        H865   1.085       .  S
C861        C862   1.414       .  A
C862        C863   1.505       .  S
C863        H867   1.111       .  S
C863        H868   1.109       .  S
C863        H869   1.110       .  S
C866        H870   1.107       .  S
C866        H871   1.110       .  S
C866        H872   1.111       .  S
C873        C874   1.410       .  A
C873        C878   1.404       .  A
C873        H880   1.074       .  S
C874       C2627   1.426   1_554  A
C875        C882   1.517       .  S
C875        C876   1.408       .  A
C875       C2626   1.426       .  A
C876        C877   1.411       .  A
C876        H881   1.073       .  S
C877       C2630   1.425       .  A
C878        C879   1.515       .  S
C878       C2629   1.425   1_554  A
C879        H883   1.111       .  S
C879        H884   1.101       .  S
C879        H885   1.111       .  S
C882        H886   1.106       .  S
C882        H887   1.105       .  S
C882        H888   1.111       .  S
C889        C894   1.409       .  A
C889       C2642   1.408       .  A
C889        H896   1.084       .  S
C890        C891   1.413       .  A
C890       C2641   1.408   1_554  A
C891        C898   1.506       .  S
C891        C892   1.408       .  A
C892       C2645   1.407   1_554  A
C892        H897   1.084       .  S
C893        C894   1.413       .  A
C893       C2644   1.408       .  A
C894        C895   1.506       .  S
C895        H899   1.111       .  S
C895        H900   1.108       .  S
C895        H901   1.110       .  S
C898        H902   1.108       .  S
C898        H903   1.110       .  S
C898        H904   1.111       .  S
C905        C906   1.406       .  A
C905        C910   1.403       .  A
C905        H912   1.084       .  S
C906        C907   1.419       .  A
C907        C914   1.509       .  S
C907        C908   1.401       .  A
C908        C909   1.405       .  A
C908        H913   1.084       .  S
C909        C910   1.417       .  A
C910        C911   1.509       .  S
C911        H915   1.111       .  S
C911        H916   1.110       .  S
C911        H917   1.110       .  S
C914        H918   1.110       .  S
C914        H919   1.110       .  S
C914        H920   1.111       .  S
C921        C922   1.405       .  A
C921        C926   1.405       .  A
C921        H928   1.084       .  S
C922        C923   1.417       .  A
C923        C930   1.510       .  S
C923        C924   1.401       .  A
C924        C925   1.406       .  A
C924        H929   1.084       .  S
C925        C926   1.418       .  A
C926        C927   1.507       .  S
C927        H931   1.111       .  S
C927        H932   1.110       .  S
C927        H933   1.110       .  S
C930        H934   1.110       .  S
C930        H935   1.111       .  S
C930        H936   1.111       .  S
C937        C938   1.407   1_556  A
C937        C942   1.403       .  A
C937        H944   1.084       .  S
C938        C939   1.416       .  A
C939        C946   1.508       .  S
C939        C940   1.403       .  A
C940        C941   1.407       .  A
C940        H945   1.084       .  S
C941        C942   1.416   1_554  A
C942        C943   1.508       .  S
C943        H947   1.111       .  S
C943        H948   1.110       .  S
C943       H2701   1.110       .  S
C946        H950   1.110       .  S
C946        H952   1.111       .  S
C946       H2703   1.110       .  S
H949       C2695   1.110       .  S
H951       C2698   1.110       .  S
C953        C954   1.404       .  A
C953        C958   1.411       .  A
C953        H960   1.084       .  S
C954        C955   1.415       .  A
C955        C962   1.508       .  S
C955        C956   1.406       .  A
C956        C957   1.404       .  A
C956        H961   1.084       .  S
C957        C958   1.415       .  A
C958        C959   1.505       .  S
C959        H963   1.111       .  S
C959        H964   1.109       .  S
C959        H965   1.110       .  S
C962        H966   1.110       .  S
C962        H967   1.108       .  S
C962        H968   1.111       .  S
C969        C974   1.404       .  A
C969       C2722   1.412   1_554  A
C969        H976   1.069       .  S
C970        C971   1.427       .  A
C970       C2721   1.410       .  A
C971        C978   1.515       .  S
C971       C2724   1.412       .  A
C972        C973   1.412   1_556  A
C972       C2723   1.413       .  A
C972        H977   1.075       .  S
C973        C974   1.425       .  A
C974        C975   1.520       .  S
C975        H979   1.110       .  S
C975        H980   1.104       .  S
C975        H981   1.105       .  S
C978        H982   1.106       .  S
C978        H983   1.106       .  S
C978        H984   1.111       .  S
C985        C986   1.403       .  A
C985        C990   1.402       .  A
C985        H992   1.084       .  S
C986        C987   1.414       .  A
C987        C994   1.505       .  S
C987        C988   1.411       .  A
C988        C989   1.404       .  A
C988        H993   1.084       .  S
C989        C990   1.414       .  A
C990        C991   1.507       .  S
C991        H995   1.110       .  S
C991        H996   1.109       .  S
C991        H997   1.110       .  S
C994        H998   1.109       .  S
C994        H999   1.110       .  S
C994       H1000   1.111       .  S
C1001      C1002   1.410       .  A
C1001      C1006   1.407       .  A
C1001      H1008   1.072       .  S
C1002      C2755   1.428   1_554  A
C1003      C1010   1.515       .  S
C1003      C1004   1.405       .  A
C1003      C2754   1.426       .  A
C1004      C1005   1.410       .  A
C1004      H1009   1.074       .  S
C1005      C2758   1.429       .  A
C1006      C1007   1.518       .  S
C1006      C2757   1.427   1_554  A
C1007      H1011   1.111       .  S
C1007      H1012   1.105       .  S
C1007      H1013   1.105       .  S
C1010      H1014   1.111       .  S
C1010      H1016   1.111       .  S
C1010      H2767   1.101       .  S
H1015      C2762   1.105       .  S
C1017      C1022   1.407       .  A
C1017      C2770   1.410       .  A
C1017      H1024   1.084       .  S
C1018      C1019   1.411       .  A
C1018      C2769   1.408   1_554  A
C1019      C1026   1.506       .  S
C1019      C1020   1.405       .  A
C1020      C2773   1.408   1_554  A
C1020      H1025   1.084       .  S
C1021      C1022   1.409       .  A
C1021      C2772   1.407       .  A
C1022      C1023   1.506       .  S
C1023      H1027   1.111       .  S
C1023      H1028   1.109       .  S
C1023      H1029   1.110       .  S
C1026      H1030   1.108       .  S
C1026      H1031   1.109       .  S
C1026      H1032   1.111       .  S
C1033      C1034   1.405       .  A
C1033      C1038   1.401       .  A
C1033      H1040   1.084       .  S
C1034      C1035   1.418       .  A
C1035      C1042   1.508       .  S
C1035      C1036   1.403       .  A
C1036      C1037   1.404       .  A
C1036      H1041   1.084       .  S
C1037      C1038   1.416       .  A
C1038      C1039   1.509       .  S
C1039      H1043   1.111       .  S
C1039      H1044   1.111       .  S
C1039      H1045   1.110       .  S
C1042      H1046   1.110       .  S
C1042      H1047   1.110       .  S
C1042      H1048   1.111       .  S
C1049      C1050   1.406       .  A
C1049      C1054   1.404       .  A
C1049      H1056   1.084       .  S
C1050      C1051   1.419       .  A
C1051      C1058   1.509       .  S
C1051      C1052   1.404       .  A
C1052      C1053   1.406       .  A
C1052      H1057   1.084       .  S
C1053      C1054   1.418       .  A
C1054      C1055   1.509       .  S
C1055      H1059   1.111       .  S
C1055      H1060   1.110       .  S
C1055      H1061   1.110       .  S
C1058      H1062   1.110       .  S
C1058      H1063   1.110       .  S
C1058      H1064   1.111       .  S
C1065      C1070   1.404       .  A
C1065      C2818   1.405       .  A
C1065      H1072   1.084       .  S
C1066      C2074   1.490       .  S
C1066      C1067   1.421       .  A
C1066      C2817   1.403   1_554  A
C1067      C1074   1.509       .  S
C1067      C1068   1.405       .  A
C1068      C1069   1.404   1_554  A
C1068      H1073   1.084       .  S
C1069      C2822   1.420       .  A
C1070      C1071   1.509       .  S
C1070      C2821   1.417       .  A
C1071      H1075   1.111       .  S
C1071      H1076   1.109       .  S
C1071      H1077   1.110       .  S
C1074      H1078   1.110       .  S
C1074      H1079   1.110       .  S
C1074      H1080   1.111       .  S
C1081      C1082   1.406       .  A
C1081      C1086   1.408   1_655  A
C1081      H1088   1.084       .  S
C1082      C1083   1.419       .  A
C1083      C1090   1.508       .  S
C1083      C1084   1.408   1_655  A
C1084      C1085   1.406       .  A
C1084      H1089   1.084       .  S
C1085      C1086   1.421       .  A
C1086      C1087   1.508       .  S
C1087      H1091   1.111       .  S
C1087      H1092   1.110       .  S
C1087      H2845   1.110       .  S
C1090      H1094   1.111       .  S
C1090      H1096   1.111       .  S
C1090      H2847   1.109       .  S
H1093      C2839   1.110       .  S
H1095      C2842   1.110       .  S
C1097      C1098   1.406       .  A
C1097      C1102   1.406       .  A
C1097      H1104   1.084       .  S
C1098      C1099   1.420       .  A
C1099      C1106   1.508       .  S
C1099      C1100   1.409       .  A
C1100      C1101   1.408       .  A
C1100      H1105   1.084       .  S
C1101      C1102   1.420       .  A
C1102      C1103   1.508       .  S
C1103      H1107   1.111       .  S
C1103      H1109   1.110       .  S
C1103      H2860   1.110       .  S
C1106      H1111   1.110       .  S
C1106      H1112   1.111       .  S
C1106      H2862   1.110   1_554  S
H1108      C2855   1.110       .  S
H1110      C2858   1.110       .  S
C1113      C1114   1.407       .  A
C1113      C1118   1.405       .  A
C1113      H1120   1.084       .  S
C1114      C2867   1.416   1_554  A
C1115      C1122   1.507       .  S
C1115      C1116   1.406       .  A
C1115      C2866   1.418       .  A
C1116      C2869   1.406       .  A
C1116      H1121   1.084       .  S
C1117      C1118   1.418       .  A
C1117      C2868   1.408   1_554  A
C1118      C1119   1.508       .  S
C1119      H1123   1.111       .  S
C1119      H1124   1.110       .  S
C1119      H1125   1.110       .  S
C1122      H1126   1.110       .  S
C1122      H1127   1.110       .  S
C1122      H1128   1.111       .  S
C1129      C1130   1.400       .  A
C1129      C1134   1.406       .  A
C1129      H1136   1.084       .  S
C1130      C2883   1.420   1_554  A
C1131      C1138   1.508       .  S
C1131      C1132   1.406       .  A
C1131      C2882   1.418       .  A
C1132      C1133   1.401       .  A
C1132      H1137   1.084       .  S
C1133      C2886   1.420       .  A
C1134      C1135   1.508       .  S
C1134      C2885   1.418   1_554  A
C1135      H1139   1.111       .  S
C1135      H1140   1.111       .  S
C1135      H1141   1.107       .  S
C1138      H1142   1.111       .  S
C1138      H1143   1.108       .  S
C1138      H1144   1.111       .  S
C1145      C1146   1.413       .  A
C1145      C1150   1.410       .  A
C1145      H1152   1.075       .  S
C1146      C2899   1.426       .  A
C1147      C1154   1.517       .  S
C1147      C1148   1.404       .  A
C1147      C2898   1.426       .  A
C1148      C1149   1.411   1_556  A
C1148      H1153   1.073       .  S
C1149      C2902   1.423       .  A
C1150      C1151   1.512       .  S
C1150      C2901   1.423       .  A
C1151      H1155   1.111       .  S
C1151      H1156   1.110       .  S
C1151      H2909   1.103       .  S
C1154      H1159   1.111       .  S
C1154      H1160   1.104       .  S
C1154      H2910   1.104       .  S
H1157      C2903   1.103       .  S
H1158      C2906   1.104       .  S
C1161      C1166   1.408       .  A
C1161      C2914   1.404       .  A
C1161      H1168   1.084       .  S
C1162      C1163   1.411       .  A
C1162      C2913   1.403   1_554  A
C1163      C1170   1.506       .  S
C1163      C1164   1.405       .  A
C1164      C2917   1.408   1_554  A
C1164      H1169   1.084       .  S
C1165      C1166   1.417       .  A
C1165      C2916   1.410       .  A
C1166      C1167   1.505       .  S
C1167      H1171   1.111       .  S
C1167      H1172   1.106       .  S
C1167      H1173   1.107       .  S
C1170      H1174   1.110       .  S
C1170      H1175   1.108       .  S
C1170      H1176   1.111       .  S
C1177      C1182   1.405   1_545  A
C1177      C2930   1.405       .  A
C1177      H1184   1.084       .  S
C1178      C1179   1.419       .  A
C1178      C2929   1.406       .  A
C1179      C1186   1.509       .  S
C1179      C1180   1.405   1_545  A
C1180      C1181   1.406       .  A
C1180      H1185   1.084       .  S
C1181      C2934   1.420       .  A
C1182      C1183   1.509       .  S
C1182      C2933   1.420       .  A
C1183      H1187   1.111       .  S
C1183      H1189   1.110       .  S
C1183      H2940   1.110       .  S
C1186      H1190   1.110       .  S
C1186      H1191   1.110       .  S
C1186      H1192   1.111       .  S
H1188      C2935   1.110       .  S
C1193      C1194   1.406       .  A
C1193      C1198   1.406       .  A
C1193      H1200   1.084       .  S
C1194      C2947   1.419       .  A
C1195      C1202   1.508       .  S
C1195      C1196   1.407       .  A
C1195      C2946   1.418       .  A
C1196      C2949   1.406       .  A
C1196      H1201   1.084       .  S
C1197      C1198   1.418       .  A
C1197      C2948   1.406       .  A
C1198      C1199   1.508       .  S
C1199      H1203   1.111       .  S
C1199      H1204   1.110       .  S
C1199      H2957   1.110       .  S
C1202      H1207   1.109       .  S
C1202      H1208   1.111       .  S
C1202      H2958   1.110       .  S
H1205      C2951   1.110   1_554  S
H1206      C2954   1.110       .  S
C1209      C1214   1.403       .  A
C1209      C2962   1.407       .  A
C1209      H1216   1.084       .  S
C1210      C1211   1.415       .  A
C1210      C2961   1.406   1_554  A
C1211      C1218   1.508       .  S
C1211      C1212   1.405       .  A
C1212      C1213   1.409       .  A
C1212      H1217   1.084       .  S
C1213      C2966   1.417   1_554  A
C1214      C1215   1.508       .  S
C1214      C2965   1.416       .  A
C1215      H1219   1.111       .  S
C1215      H1221   1.110       .  S
C1215      H2972   1.110       .  S
C1218      H1222   1.110       .  S
C1218      H1224   1.111       .  S
C1218      H2975   1.110       .  S
H1220      C2967   1.109       .  S
H1223      C2970   1.111       .  S
C1225      C1226   1.406       .  A
C1225      C1230   1.404   1_655  A
C1225      H1232   1.084       .  S
C1226      C1227   1.419       .  A
C1227      C1234   1.508       .  S
C1227      C1228   1.405   1_655  A
C1228      C1229   1.406       .  A
C1228      H1233   1.084       .  S
C1229      C1230   1.419       .  A
C1230      C1231   1.508       .  S
C1231      H1235   1.111       .  S
C1231      H1236   1.110       .  S
C1231      H2989   1.110   1_554  S
C1234      H1238   1.110       .  S
C1234      H1240   1.111       .  S
C1234      H2991   1.110       .  S
H1237      C2983   1.109       .  S
H1239      C2986   1.110       .  S
C1241      C1242   1.406       .  A
C1241      C1246   1.406   1_545  A
C1241      H1248   1.084       .  S
C1242      C2995   1.421       .  A
C1243      C1250   1.508       .  S
C1243      C1244   1.407   1_545  A
C1243      C2994   1.420       .  A
C1244      C1245   1.406       .  A
C1244      H1249   1.084       .  S
C1245      C2998   1.420       .  A
C1246      C1247   1.509       .  S
C1246      C2997   1.420       .  A
C1247      H1251   1.111       .  S
C1247      H1253   1.110       .  S
C1247      H3004   1.110       .  S
C1250      H1254   1.110   1_556  S
C1250      H1256   1.111       .  S
C1250      H3007   1.110       .  S
H1252      C2999   1.109       .  S
H1255      C3002   1.110       .  S
C1257      C1258   1.402       .  A
C1257      C1262   1.402       .  A
C1257      H1264   1.084       .  S
C1258      C1948   1.482       .  S
C1258      C3011   1.416   1_554  A
C1259      C1266   1.509       .  S
C1259      C1260   1.405       .  A
C1259      C3010   1.417       .  A
C1260      C3013   1.405       .  A
C1260      H1265   1.084       .  S
C1261      C1262   1.421       .  A
C1261      C3012   1.405   1_554  A
C1262      C1263   1.509       .  S
C1263      H1267   1.111       .  S
C1263      H1269   1.110       .  S
C1263      H3020   1.110       .  S
C1266      H1270   1.111       .  S
C1266      H1272   1.111       .  S
C1266      H3023   1.109       .  S
H1268      C3015   1.110       .  S
H1271      C3018   1.109       .  S
C1273      C1278   1.408       .  A
C1273      C3026   1.411       .  A
C1273      H1280   1.074       .  S
C1274      C1275   1.426       .  A
C1274      C3025   1.411   1_554  A
C1275      C1282   1.517       .  S
C1275      C1276   1.404       .  A
C1276      C3029   1.409   1_554  A
C1276      H1281   1.072       .  S
C1277      C1278   1.425       .  A
C1277      C3028   1.409       .  A
C1278      C1279   1.516       .  S
C1279      H1283   1.111       .  S
C1279      H1284   1.105       .  S
C1279      H1285   1.106       .  S
C1282      H1286   1.104       .  S
C1282      H1287   1.105       .  S
C1282      H1288   1.111       .  S
C1289      C1294   1.408       .  A
C1289      C3042   1.413   1_554  A
C1289      H1296   1.076       .  S
C1290      C1291   1.425       .  A
C1290      C3041   1.413       .  A
C1291      C1298   1.513       .  S
C1291      C1292   1.409       .  A
C1292      C3045   1.413       .  A
C1292      H1297   1.075       .  S
C1293      C1294   1.425       .  A
C1293      C3044   1.414       .  A
C1294      C1295   1.514       .  S
C1295      H1299   1.111       .  S
C1295      H1300   1.111       .  S
C1295      H1301   1.102       .  S
C1298      H1302   1.102       .  S
C1298      H1303   1.111       .  S
C1298      H1304   1.111       .  S
C1305      C1310   1.408       .  A
C1305      C3058   1.406   1_554  A
C1305      H1312   1.084       .  S
C1306      C1307   1.408       .  A
C1306      C3057   1.405       .  A
C1307      C1314   1.507       .  S
C1307      C1308   1.405       .  A
C1308      C3061   1.410       .  A
C1308      H1313   1.084       .  S
C1309      C1310   1.415       .  A
C1309      C3060   1.411   1_554  A
C1310      C1311   1.505       .  S
C1311      H1315   1.111       .  S
C1311      H1316   1.107       .  S
C1311      H1317   1.108       .  S
C1314      H1318   1.110       .  S
C1314      H1319   1.109       .  S
C1314      H1320   1.111       .  S
C1321      C1322   1.403       .  A
C1321      C1326   1.407       .  A
C1321      H1328   1.084       .  S
C1322      C1323   1.412       .  A
C1323      C1330   1.505       .  S
C1323      C1324   1.408       .  A
C1324      C1325   1.403       .  A
C1324      H1329   1.084       .  S
C1325      C1326   1.413       .  A
C1326      C1327   1.506       .  S
C1327      H1331   1.111       .  S
C1327      H1332   1.111       .  S
C1327      H1333   1.109       .  S
C1330      H1334   1.110       .  S
C1330      H1335   1.111       .  S
C1330      H1336   1.111       .  S
C1337      C1338   1.406       .  A
C1337      C1342   1.407   1_655  A
C1337      H1344   1.084       .  S
C1338      C1339   1.420       .  A
C1339      C1346   1.508       .  S
C1339      C1340   1.409   1_655  A
C1340      C1341   1.407       .  A
C1340      H1345   1.084       .  S
C1341      C1342   1.421       .  A
C1342      C1343   1.508       .  S
C1343      H1347   1.111       .  S
C1343      H1348   1.110       .  S
C1343      H1349   1.110       .  S
C1346      H1350   1.109       .  S
C1346      H1351   1.110       .  S
C1346      H1352   1.111       .  S
C1353      C1354   1.406       .  A
C1353      C1358   1.404       .  A
C1353      H1360   1.084       .  S
C1354      C1355   1.418       .  A
C1355      C1362   1.509       .  S
C1355      C1356   1.403       .  A
C1356      C1357   1.406       .  A
C1356      H1361   1.084       .  S
C1357      C1358   1.419       .  A
C1358      C1359   1.508       .  S
C1359      H1363   1.111       .  S
C1359      H1364   1.110       .  S
C1359      H1365   1.110       .  S
C1362      H1366   1.110       .  S
C1362      H1367   1.110       .  S
C1362      H1368   1.111       .  S
C1369      C1370   1.407       .  A
C1369      C1374   1.409       .  A
C1369      H1376   1.084       .  S
C1370      C1371   1.421       .  A
C1371      C1378   1.508       .  S
C1371      C1372   1.409       .  A
C1372      C1373   1.407       .  A
C1372      H1377   1.084       .  S
C1373      C1374   1.421       .  A
C1374      C1375   1.508       .  S
C1375      H1379   1.111       .  S
C1375      H1380   1.110       .  S
C1375      H1381   1.110       .  S
C1378      H1382   1.109       .  S
C1378      H1383   1.110       .  S
C1378      H1384   1.111       .  S
C1385      C1386   1.405       .  A
C1385      C1390   1.404       .  A
C1385      H1392   1.084       .  S
C1386      C1387   1.418       .  A
C1387      C1394   1.509       .  S
C1387      C1388   1.402       .  A
C1388      C1389   1.404       .  A
C1388      H1393   1.084       .  S
C1389      C1390   1.417       .  A
C1390      C1391   1.509       .  S
C1391      H1395   1.111       .  S
C1391      H1396   1.109       .  S
C1391      H1397   1.111       .  S
C1394      H1398   1.110       .  S
C1394      H1399   1.110       .  S
C1394      H1400   1.111       .  S
C1401      C1402   1.407       .  A
C1401      C1406   1.404       .  A
C1401      H1408   1.084       .  S
C1402      C1403   1.416       .  A
C1403      C1410   1.508       .  S
C1403      C1404   1.405       .  A
C1404      C1405   1.409       .  A
C1404      H1409   1.084       .  S
C1405      C1406   1.417       .  A
C1406      C1407   1.508       .  S
C1407      H1411   1.111       .  S
C1407      H1412   1.110       .  S
C1407      H1413   1.110       .  S
C1410      H1414   1.110       .  S
C1410      H1415   1.110       .  S
C1410      H1416   1.111       .  S
C1417      C1418   1.404       .  A
C1417      C1422   1.408       .  A
C1417      H1424   1.084       .  S
C1418      C1419   1.415       .  A
C1419      C1426   1.505       .  S
C1419      C1420   1.412       .  A
C1420      C1421   1.404       .  A
C1420      H1425   1.084       .  S
C1421      C1422   1.414       .  A
C1422      C1423   1.507       .  S
C1423      H1427   1.111       .  S
C1423      H1428   1.110       .  S
C1423      H1429   1.108       .  S
C1426      H1430   1.109       .  S
C1426      H1431   1.110       .  S
C1426      H1432   1.111       .  S
C1433      C1434   1.409       .  A
C1433      C1438   1.400       .  A
C1433      H1440   1.083       .  S
C1434      C1435   1.425       .  A
C1435      C1442   1.506       .  S
C1435      C1436   1.422       .  A
C1436      C1437   1.410       .  A
C1436      H1441   1.083       .  S
C1437      C1438   1.419       .  A
C1438      C1439   1.511       .  S
C1439      H1443   1.111       .  S
C1439      H1444   1.106       .  S
C1439      H1445   1.110       .  S
C1442      H1446   1.110       .  S
C1442      H1447   1.106       .  S
C1442      H1448   1.111       .  S
C1449      C1450   1.403       .  A
C1449      C1454   1.402       .  A
C1449      H1456   1.085       .  S
C1450      C1451   1.416       .  A
C1451      C1458   1.506       .  S
C1451      C1452   1.413       .  A
C1452      C1453   1.405       .  A
C1452      H1457   1.084       .  S
C1453      C1454   1.417       .  A
C1454      C1455   1.507       .  S
C1455      H1459   1.111       .  S
C1455      H1460   1.107       .  S
C1455      H1461   1.110       .  S
C1458      H1462   1.108       .  S
C1458      H1463   1.110       .  S
C1458      H1464   1.111       .  S
C1465      C1466   1.410       .  A
C1465      C1470   1.407       .  A
C1465      H1472   1.073       .  S
C1466      C1467   1.428       .  A
C1467      C1474   1.516       .  S
C1467      C1468   1.408       .  A
C1468      C1469   1.409       .  A
C1468      H1473   1.074       .  S
C1469      C1470   1.428       .  A
C1470      C1471   1.519       .  S
C1471      H1475   1.110       .  S
C1471      H1476   1.106       .  S
C1471      H1477   1.104       .  S
C1474      H1478   1.106       .  S
C1474      H1479   1.102       .  S
C1474      H1480   1.111       .  S
C1481      C1482   1.403       .  A
C1481      C1486   1.411       .  A
C1481      H1488   1.084       .  S
C1482      C1483   1.415       .  A
C1483      C1490   1.506       .  S
C1483      C1484   1.403       .  A
C1484      C1485   1.404       .  A
C1484      H1489   1.085       .  S
C1485      C1486   1.416       .  A
C1486      C1487   1.506       .  S
C1487      H1491   1.111       .  S
C1487      H1492   1.110       .  S
C1487      H1493   1.108       .  S
C1490      H1494   1.110       .  S
C1490      H1495   1.107       .  S
C1490      H1496   1.111       .  S
C1497      C1498   1.401       .  A
C1497      C1502   1.405       .  A
C1497      H1504   1.085       .  S
C1498      C1499   1.419       .  A
C1499      C1506   1.507       .  S
C1499      C1500   1.404       .  A
C1500      C1501   1.399       .  A
C1500      H1505   1.085       .  S
C1501      C1502   1.417       .  A
C1502      C1503   1.507       .  S
C1503      H1507   1.111       .  S
C1503      H1508   1.110       .  S
C1503      H1509   1.108       .  S
C1506      H1510   1.110       .  S
C1506      H1511   1.108       .  S
C1506      H1512   1.111       .  S
C1513      C1514   1.407       .  A
C1513      C1518   1.408       .  A
C1513      H1520   1.084       .  S
C1514      C1515   1.420       .  A
C1515      C1522   1.509       .  S
C1515      C1516   1.404       .  A
C1516      C1517   1.406       .  A
C1516      H1521   1.084       .  S
C1517      C1518   1.419       .  A
C1518      C1519   1.507       .  S
C1519      H1523   1.111       .  S
C1519      H1524   1.110       .  S
C1519      H1525   1.110       .  S
C1522      H1526   1.110       .  S
C1522      H1527   1.110       .  S
C1522      H1528   1.111       .  S
C1529      C1530   1.404       .  A
C1529      C1534   1.402       .  A
C1529      H1536   1.084       .  S
C1530      C1531   1.417       .  A
C1531      C1538   1.509       .  S
C1531      C1532   1.403       .  A
C1532      C1533   1.406       .  A
C1532      H1537   1.084       .  S
C1533      C1534   1.418       .  A
C1534      C1535   1.508       .  S
C1535      H1539   1.111       .  S
C1535      H1540   1.110       .  S
C1535      H1541   1.110       .  S
C1538      H1542   1.111       .  S
C1538      H1543   1.110       .  S
C1538      H1544   1.111       .  S
C1545      C1546   1.407       .  A
C1545      C1550   1.406   1_545  A
C1545      H1552   1.084       .  S
C1546      C1547   1.419       .  A
C1547      C1554   1.508       .  S
C1547      C1548   1.407   1_545  A
C1548      C1549   1.407       .  A
C1548      H1553   1.084       .  S
C1549      C1550   1.418       .  A
C1550      C1551   1.508       .  S
C1551      H1555   1.111       .  S
C1551      H1556   1.110       .  S
C1551      H1557   1.109       .  S
C1554      H1558   1.110       .  S
C1554      H1559   1.110       .  S
C1554      H1560   1.111       .  S
C1561      C1562   1.405       .  A
C1561      C1566   1.404       .  A
C1561      H1568   1.084       .  S
C1562      C1563   1.419       .  A
C1563      C1570   1.509       .  S
C1563      C1564   1.401       .  A
C1564      C1565   1.404       .  A
C1564      H1569   1.084       .  S
C1565      C1566   1.419       .  A
C1566      C1567   1.509       .  S
C1567      H1571   1.111       .  S
C1567      H1572   1.110       .  S
C1567      H1573   1.110       .  S
C1570      H1574   1.110       .  S
C1570      H1575   1.110       .  S
C1570      H1576   1.111       .  S
C1577      C1578   1.403       .  A
C1577      C1582   1.404       .  A
C1577      H1584   1.084       .  S
C1578      C1579   1.419       .  A
C1579      C1586   1.509       .  S
C1579      C1580   1.404       .  A
C1580      C1581   1.404       .  A
C1580      H1585   1.084       .  S
C1581      C1582   1.422       .  A
C1582      C1583   1.509       .  S
C1583      H1587   1.111       .  S
C1583      H1588   1.110       .  S
C1583      H1589   1.110       .  S
C1586      H1590   1.109       .  S
C1586      H1591   1.110       .  S
C1586      H1592   1.111       .  S
C1593      C1594   1.404       .  A
C1593      C1598   1.404   1_655  A
C1593      H1600   1.084       .  S
C1594      C1595   1.417       .  A
C1595      C1602   1.509       .  S
C1595      C1596   1.405   1_655  A
C1596      C1597   1.406       .  A
C1596      H1601   1.084       .  S
C1597      C1598   1.418       .  A
C1598      C1599   1.508       .  S
C1599      H1603   1.111       .  S
C1599      H1604   1.110       .  S
C1599      H1605   1.110       .  S
C1602      H1606   1.109       .  S
C1602      H1607   1.111       .  S
C1602      H1608   1.111       .  S
C1609      C1610   1.405       .  A
C1609      C1614   1.403       .  A
C1609      H1616   1.084       .  S
C1610      C1611   1.419       .  A
C1611      C1618   1.509       .  S
C1611      C1612   1.404       .  A
C1612      C1613   1.406       .  A
C1612      H1617   1.084       .  S
C1613      C1614   1.419       .  A
C1614      C1615   1.509       .  S
C1615      H1619   1.111       .  S
C1615      H1620   1.110       .  S
C1615      H1621   1.110       .  S
C1618      H1622   1.110       .  S
C1618      H1623   1.110       .  S
C1618      H1624   1.111       .  S
C1625      C1626   1.405       .  A
C1625      C1630   1.407   1_545  A
C1625      H1632   1.084       .  S
C1626      C1627   1.421       .  A
C1627      C1634   1.509       .  S
C1627      C1628   1.404   1_545  A
C1628      C1629   1.404       .  A
C1628      H1633   1.084       .  S
C1629      C1630   1.420       .  A
C1630      C1631   1.508       .  S
C1631      H1635   1.111       .  S
C1631      H1636   1.110       .  S
C1631      H1637   1.109       .  S
C1634      H1638   1.110       .  S
C1634      H1639   1.110       .  S
C1634      H1640   1.111       .  S
C1641      C1642   1.405       .  A
C1641      C1646   1.401       .  A
C1641      H1648   1.084       .  S
C1642      C1643   1.418       .  A
C1643      C1650   1.508       .  S
C1643      C1644   1.404       .  A
C1644      C1645   1.404       .  A
C1644      H1649   1.084       .  S
C1645      C1646   1.416       .  A
C1646      C1647   1.509       .  S
C1647      H1651   1.111       .  S
C1647      H1652   1.111       .  S
C1647      H1653   1.109       .  S
C1650      H1654   1.110       .  S
C1650      H1655   1.110       .  S
C1650      H1656   1.111       .  S
C1657      C1658   1.401       .  A
C1657      C1662   1.400       .  A
C1657      H1664   1.084       .  S
C1658      C1659   1.415       .  A
C1659      C1666   1.508       .  S
C1659      C1660   1.403       .  A
C1660      C1661   1.406       .  A
C1660      H1665   1.084       .  S
C1661      C1662   1.422       .  A
C1662      C1663   1.510       .  S
C1663      H1667   1.111       .  S
C1663      H1668   1.110       .  S
C1663      H1669   1.110       .  S
C1666      H1670   1.109       .  S
C1666      H1671   1.110       .  S
C1666      H1672   1.111       .  S
C1673      C1674   1.402       .  A
C1673      C1678   1.402       .  A
C1673      H1680   1.085       .  S
C1674      C1675   1.414       .  A
C1675      C1682   1.505       .  S
C1675      C1676   1.413       .  A
C1676      C1677   1.406       .  A
C1676      H1681   1.084       .  S
C1677      C1678   1.416       .  A
C1678      C1679   1.507       .  S
C1679      H1683   1.110       .  S
C1679      H1684   1.107       .  S
C1679      H1685   1.110       .  S
C1682      H1686   1.109       .  S
C1682      H1687   1.111       .  S
C1682      H1688   1.111       .  S
C1689      C1690   1.408       .  A
C1689      C1694   1.405       .  A
C1689      H1696   1.073       .  S
C1690      C1691   1.428       .  A
C1691      C1698   1.518       .  S
C1691      C1692   1.407       .  A
C1692      C1693   1.410       .  A
C1692      H1697   1.073       .  S
C1693      C1694   1.427       .  A
C1694      C1695   1.519       .  S
C1695      H1699   1.111       .  S
C1695      H1700   1.105       .  S
C1695      H1701   1.105       .  S
C1698      H1702   1.106       .  S
C1698      H1703   1.104       .  S
C1698      H1704   1.111       .  S
C1705      C1706   1.404       .  A
C1705      C1710   1.412       .  A
C1705      H1712   1.084       .  S
C1706      C1707   1.418       .  A
C1707      C1714   1.509       .  S
C1707      C1708   1.402       .  A
C1708      C1709   1.403       .  A
C1708      H1713   1.085       .  S
C1709      C1710   1.417       .  A
C1710      C1711   1.506       .  S
C1711      H1715   1.111       .  S
C1711      H1716   1.110       .  S
C1711      H1717   1.107       .  S
C1714      H1718   1.110       .  S
C1714      H1719   1.106       .  S
C1714      H1720   1.111       .  S
C1721      C1722   1.410       .  A
C1721      C1726   1.403       .  A
C1721      H1728   1.076       .  S
C1722      C1723   1.424       .  A
C1723      C1730   1.516       .  S
C1723      C1724   1.406       .  A
C1724      C1725   1.412       .  A
C1724      H1729   1.071       .  S
C1725      C1726   1.425       .  A
C1726      C1727   1.513       .  S
C1727      H1731   1.111       .  S
C1727      H1732   1.098       .  S
C1727      H1733   1.111       .  S
C1730      H1734   1.111       .  S
C1730      H1735   1.107       .  S
C1730      H1736   1.105       .  S
C1737      C1738   1.407       .  A
C1737      C1742   1.407       .  A
C1737      H1744   1.084       .  S
C1738      C1739   1.412       .  A
C1739      C1746   1.505       .  S
C1739      C1740   1.406       .  A
C1740      C1741   1.407       .  A
C1740      H1745   1.084       .  S
C1741      C1742   1.412       .  A
C1742      C1743   1.506       .  S
C1743      H1747   1.111       .  S
C1743      H1748   1.108       .  S
C1743      H1749   1.109       .  S
C1746      H1750   1.109       .  S
C1746      H1751   1.106       .  S
C1746      H1752   1.111       .  S
C1753      C1754   1.549       .  S
C1753      C1759   1.534       .  S
C1753      C1757   1.537       .  S
C1753      C3474   1.548       .  S
C1754      H1761   1.080       .  S
C1754      C1755   1.363       .  D
C1755      C1756   1.543       .  S
C1755      C3490   1.491       .  S
C1756      C1760   1.545       .  S
C1756      C1758   1.547       .  S
C1756      H1762   1.110       .  S
C1757      H1763   1.085       .  S
C1757      C1758   1.367       .  D
C1758      C1778   1.482       .  S
C1759      H1764   1.086       .  S
C1759      C1760   1.365       .  D
C1760      C3458   1.494       .  S
C1765      C1766   1.537       .  S
C1765      C1771   1.547       .  S
C1765      C1769   1.534       .  S
C1765      C3442   1.547       .  S
C1766      H1773   1.086       .  S
C1766      C1767   1.366       .  D
C1767      C1768   1.544       .  S
C1767      C3493   1.495       .  S
C1768      C1772   1.544       .  S
C1768      C1770   1.540       .  S
C1768      H1774   1.108       .  S
C1769      H1775   1.085       .  S
C1769      C1770   1.362       .  D
C1770      C1791   1.474       .  S
C1771      H1776   1.081       .  S
C1771      C1772   1.368       .  D
C1772      C3426   1.490       .  S
O1777      C1780   1.266       .  A
O1777     Cd1782   2.480       .  S
C1778      O1787   1.263       .  A
C1778      O1783   1.267       .  A
O1779      C1785   1.261       .  A
O1779     Cd1782   2.480       .  S
C1780      O1788   1.263       .  A
C1780      C3397   1.486       .  S
C1781      O1786   1.268       .  A
C1781      O1784   1.264       .  A
C1781      C3410   1.487       .  S
Cd1782     O1789   2.495       .  S
Cd1782     O1788   2.453       .  S
Cd1782     O1787   2.484       .  S
Cd1782     O1783   2.479       .  S
Cd1782     O1786   2.453       .  S
Cd1782     O1784   2.440       .  S
C1785      O1789   1.266       .  A
C1785      C3378   1.496       .  S
O1790      C1793   1.267       .  A
O1790     Cd1795   2.480       .  S
C1791      O1800   1.264       .  A
C1791      O1796   1.267       .  A
O1792      C1798   1.266       .  A
O1792     Cd1795   2.476       .  S
C1793      O1801   1.263       .  A
C1793      C3362   1.487       .  S
C1794      O1799   1.269       .  A
C1794      O1797   1.262       .  A
C1794      C3413   1.486       .  S
Cd1795     O1802   2.453       .  S
Cd1795     O1801   2.442       .  S
Cd1795     O1800   2.464       .  S
Cd1795     O1796   2.454       .  S
Cd1795     O1799   2.465       .  S
Cd1795     O1797   2.424       .  S
C1798      O1802   1.263       .  A
C1798      C3346   1.491       .  S
O1803      C1806   1.265       .  A
O1803     Cd1808   2.448       .  S
C1804      C1834   1.476       .  S
C1804      O1813   1.265       .  A
C1804      O1809   1.265       .  A
O1805      C1811   1.266       .  A
O1805     Cd1808   2.491       .  S
C1806      O1814   1.264       .  A
C1806      C3314   1.485       .  S
C1807      O1812   1.271       .  A
C1807      O1810   1.262       .  A
C1807      C3333   1.488       .  S
Cd1808     O1815   2.460       .  S
Cd1808     O1814   2.459       .  S
Cd1808     O1813   2.498       .  S
Cd1808     O1809   2.429       .  S
Cd1808     O1812   2.480       .  S
Cd1808     O1810   2.432       .  S
C1811      O1815   1.263       .  A
C1811      C3298   1.492       .  S
O1816      C1819   1.266       .  A
O1816     Cd1821   2.451       .  S
C1817      O1826   1.265       .  A
C1817      O1822   1.264       .  A
C1817      C3282   1.487       .  S
O1818      C1824   1.269       .  A
O1818     Cd1821   2.482       .  S
C1819      C1846   1.474       .  S
C1819      O1827   1.264       .  A
C1820      O1825   1.265       .  A
C1820      O1823   1.263       .  A
C1820      C3266   1.494       .  S
Cd1821     O1828   2.434       .  S
Cd1821     O1827   2.475       .  S
Cd1821     O1826   2.442       .  S
Cd1821     O1822   2.463       .  S
Cd1821     O1825   2.475       .  S
Cd1821     O1823   2.478       .  S
C1824      O1828   1.263       .  A
C1824      C3330   1.490       .  S
C1829      C1830   1.534       .  S
C1829      C1835   1.532       .  S
C1829      C1833   1.548       .  S
C1829      C3477   1.546       .  S
C1830      H1837   1.086       .  S
C1830      C1831   1.364       .  D
C1831      C1832   1.545       .  S
C1831      C3250   1.493       .  S
C1832      C1836   1.545       .  S
C1832      C1834   1.540       .  S
C1832      H1838   1.111       .  S
C1833      H1839   1.079       .  S
C1833      C1834   1.367       .  D
C1835      H1840   1.086       .  S
C1835      C1836   1.365       .  D
C1836      C3234   1.486       .  S
C1841      C1842   1.541       .  S
C1841      C1847   1.549       .  S
C1841      C1845   1.535       .  S
C1841      C3218   1.551       .  S
C1842      H1849   1.085       .  S
C1842      C1843   1.366       .  D
C1843      C1844   1.539       .  S
C1843      C3253   1.487       .  S
C1844      C1848   1.541       .  S
C1844      C1846   1.539       .  S
C1844      H1850   1.110       .  S
C1845      H1851   1.086       .  S
C1845      C1846   1.364       .  D
C1847      H1852   1.081       .  S
C1847      C1848   1.368       .  D
C1848      C3202   1.492       .  S
C1853      C1854   1.532       .  S
C1853      C1859   1.548       .  S
C1853      C1857   1.532       .  S
C1853      C3221   1.553       .  S
C1854      H1861   1.085       .  S
C1854      C1855   1.373       .  D
C1855      C1856   1.555       .  S
C1855      C3186   1.516       .  S
C1856      C1860   1.543       .  S
C1856      C1858   1.549       .  S
C1856      H1862   1.104       .  S
C1857      H1863   1.085       .  S
C1857      C1858   1.367       .  D
C1858      C1868   1.480       .  S
C1859      H1864   1.080       .  S
C1859      C1860   1.364       .  D
C1860      C3170   1.492       .  S
O1865      C1868   1.267       .  A
O1865     Cd1870   2.452       .  S
C1866      O1875   1.265       .  A
C1866      O1871   1.264       .  A
C1866      C3138   1.488       .  S
O1867      C1873   1.269       .  A
O1867     Cd1870   2.484       .  S
C1868      O1876   1.265       .  A
C1869      O1874   1.265       .  A
C1869      O1872   1.262       .  A
C1869      C3122   1.499       .  S
Cd1870     O1877   2.425       .  S
Cd1870     O1876   2.496       .  S
Cd1870     O1875   2.450       .  S
Cd1870     O1871   2.463       .  S
Cd1870     O1874   2.503       .  S
Cd1870     O1872   2.479       .  S
C1873      O1877   1.263       .  A
C1873      C3154   1.491       .  S
O1878      C1881   1.265       .  A
O1878     Cd1883   2.458       .  S
C1879      C1896   1.477       .  S
C1879      O1888   1.266       .  A
C1879      O1884   1.265       .  A
O1880      C1886   1.265       .  A
O1880     Cd1883   2.493       .  S
C1881      O1889   1.263       .  A
C1881      C3106   1.487       .  S
C1882      O1887   1.270       .  A
C1882      O1885   1.264       .  A
C1882      C3157   1.490       .  S
Cd1883     O1890   2.494       .  S
Cd1883     O1889   2.444       .  S
Cd1883     O1888   2.503       .  S
Cd1883     O1884   2.432       .  S
Cd1883     O1887   2.494       .  S
Cd1883     O1885   2.422       .  S
C1886      O1890   1.263       .  A
C1886      C3090   1.501       .  S
C1891      C1892   1.534       .  S
C1891      C1897   1.552       .  S
C1891      C1895   1.529       .  S
C1891      C3445   1.550       .  S
C1892      H1899   1.084       .  S
C1892      C1893   1.370       .  D
C1893      C1894   1.551       .  S
C1893      C3189   1.507       .  S
C1894      C1898   1.536       .  S
C1894      C1896   1.547       .  S
C1894      H1900   1.110       .  S
C1895      H1901   1.085       .  S
C1895      C1896   1.364       .  D
C1897      H1902   1.080       .  S
C1897      C1898   1.364       .  D
C1898      C3074   1.483       .  S
C1903      C1904   1.536       .  S
C1903      C1909   1.546       .  S
C1903      C1907   1.543       .  S
C1903      C3042   1.550       .  S
C1904      H1911   1.087       .  S
C1904      C1905   1.367       .  D
C1905      C1906   1.545       .  S
C1905      C3461   1.496       .  S
C1906      C1910   1.540       .  S
C1906      C1908   1.542       .  S
C1906      H1912   1.108       .  S
C1907      C1908   1.369       .  D
C1908      C1930   1.479       .  S
C1909      C1910   1.363       .  D
C1910      C3058   1.487       .  S
C1915      C1916   1.536       .  S
C1915      C1921   1.532       .  S
C1915      C1919   1.549       .  S
C1915      C3026   1.548       .  S
C1916      H1923   1.085       .  S
C1916      C1917   1.366       .  D
C1917      C1918   1.543       .  S
C1917      C3429   1.489       .  S
C1918      C1922   1.545       .  S
C1918      C1920   1.539       .  S
C1918      H1924   1.107       .  S
C1919      C1920   1.367       .  D
C1920      C1941   1.474       .  S
C1921      H1926   1.087       .  S
C1921      C1922   1.365       .  D
C1922      C3061   1.496       .  S
O1927      C1930   1.265   1_554  A
C1928      O1937   1.266       .  A
C1928      O1933   1.264       .  A
C1928      C3394   1.486       .  S
O1929      C1935   1.262       .  A
C1930      O1938   1.264       .  A
C1931      O1934   1.262       .  A
C1931      C3013   1.491       .  S
Cd1932     O1939   2.482       .  S
Cd1932     O1937   2.452       .  S
Cd1932     O1933   2.460       .  S
Cd1932     O1934   2.448       .  S
C1935      C2994   1.494       .  S
O1940      C1943   1.265       .  A
O1940     Cd1945   2.474       .  S
C1941      O1950   1.264       .  A
C1941      O1946   1.265       .  A
C1943      O1951   1.266       .  A
C1943      C3365   1.489       .  S
C1944      O1949   1.265       .  A
C1944      C2978   1.492       .  S
Cd1945     O1952   2.437       .  S
Cd1945     O1951   2.444       .  S
Cd1945     O1947   2.473   1_556  S
C1948      O1952   1.263   1_554  A
O1953      C1956   1.265       .  A
O1953     Cd1958   2.452       .  S
C1954      C1996   1.479       .  S
C1954      O1963   1.265       .  A
C1954      O1959   1.265   1_556  A
C1956      O1964   1.263       .  A
C1956      C3285   1.485       .  S
C1957      O1962   1.265       .  A
C1957      C2946   1.492       .  S
Cd1958     O1965   2.445       .  S
Cd1958     O1964   2.455       .  S
Cd1958     O1960   2.472       .  S
C1961      O1965   1.265       .  A
C1961      C2965   1.489       .  S
O1966      C1969   1.263       .  A
O1966     Cd1971   2.460       .  S
C1967      C1984   1.475       .  S
C1967      O1976   1.266       .  A
C1967      O1972   1.265       .  A
O1968      C1974   1.268       .  A
C1969      O1977   1.265       .  A
C1969      C3317   1.488       .  S
C1970      O1975   1.264       .  A
C1970      C2930   1.494       .  S
Cd1971     O1978   2.425       .  S
Cd1971     O1977   2.462       .  S
Cd1971     O1973   2.461   1_556  S
C1974      C2962   1.491       .  S
C1979      C1980   1.539       .  S
C1979      C1985   1.538       .  S
C1979      C1983   1.548       .  S
C1979      C3045   1.548       .  S
C1980      H1987   1.086       .  S
C1980      C1981   1.365       .  D
C1981      C1982   1.540       .  S
C1981      C3237   1.487       .  S
C1982      C1986   1.542       .  S
C1982      C1984   1.538       .  S
C1982      H1988   1.110       .  S
C1983      H1989   1.080       .  S
C1983      C1984   1.367       .  D
C1985      H1990   1.087       .  S
C1985      C1986   1.365       .  D
C1986      C2914   1.488       .  S
C1991      C1992   1.536       .  S
C1991      C1997   1.537       .  S
C1991      C1995   1.549       .  S
C1991      C2898   1.552       .  S
C1992      H1999   1.086       .  S
C1992      C1993   1.366       .  D
C1993      C1994   1.541       .  S
C1993      C3205   1.490       .  S
C1994      C1998   1.542       .  S
C1994      C1996   1.540       .  S
C1994      H2000   1.107       .  S
C1995      C1996   1.369       .  D
C1997      C1998   1.367       .  D
C1998      C2917   1.495       .  S
C2003      C2004   1.535       .  S
C2003      C2009   1.548       .  S
C2003      C2007   1.541       .  S
C2003      C2901   1.551       .  S
C2004      H2011   1.086       .  S
C2004      C2005   1.368       .  D
C2005      C2006   1.544       .  S
C2005      C3173   1.493       .  S
C2006      C2010   1.538       .  S
C2006      C2008   1.543       .  S
C2006      H2012   1.111       .  S
C2007      H2013   1.086       .  S
C2007      C2008   1.369       .  D
C2008      C2016   1.477       .  S
C2009      H2014   1.080       .  S
C2009      C2010   1.360       .  D
C2010      C2882   1.485       .  S
O2015      C2018   1.266       .  A
O2015     Cd2020   2.452       .  S
C2016      O2025   1.264       .  A
C2016      O2021   1.266       .  A
O2017      C2023   1.268       .  A
C2018      O2026   1.264       .  A
C2018      C3141   1.486       .  S
C2019      O2024   1.264       .  A
C2019      C2850   1.494       .  S
Cd2020     O2027   2.441       .  S
Cd2020     O2026   2.448       .  S
Cd2020     O2022   2.478   1_556  S
C2023      C2869   1.489       .  S
O2028      C2031   1.264       .  A
O2028     Cd2033   2.458       .  S
C2029      C2046   1.474       .  S
C2029      O2038   1.264       .  A
C2029      O2034   1.266   1_556  A
C2031      O2039   1.266       .  A
C2031      C3109   1.489       .  S
C2032      O2037   1.267       .  A
C2032      C2834   1.497       .  S
Cd2033     O2040   2.443       .  S
Cd2033     O2039   2.453       .  S
Cd2033     O2035   2.482       .  S
C2036      O2040   1.264       .  A
C2036      C2866   1.494       .  S
C2041      C2042   1.535       .  S
C2041      C2047   1.550       .  S
C2041      C2045   1.539       .  S
C2041      C3029   1.547       .  S
C2042      H2049   1.086       .  S
C2042      C2043   1.364       .  D
C2043      C2044   1.541       .  S
C2043      C3077   1.484       .  S
C2044      C2048   1.538       .  S
C2044      C2046   1.538       .  S
C2044      H2050   1.111       .  S
C2045      C2046   1.365       .  D
C2047      C2048   1.365       .  D
C2048      C2885   1.485       .  S
O2053      C2056   1.266       .  A
C2054      O2063   1.265       .  A
C2054      O2059   1.264       .  A
C2054      C2805   1.488       .  S
O2055      C2061   1.270       .  A
C2056      C2084   1.477       .  S
C2056      O2064   1.264       .  A
C2057      O2062   1.264       .  A
C2057      C2981   1.492       .  S
Cd2058     O2065   2.418       .  S
Cd2058     O2063   2.448       .  S
Cd2058     O2059   2.460       .  S
Cd2058     O2060   2.467   1_556  S
C2061      C2821   1.484       .  S
O2066      C2069   1.265   1_554  A
C2067      O2076   1.266       .  A
C2067      O2072   1.264       .  A
C2067      C2789   1.482       .  S
O2068      C2074   1.270   1_556  A
C2069      C2096   1.481       .  S
C2069      O2077   1.265       .  A
C2070      O2075   1.263       .  A
C2070      C2949   1.493       .  S
Cd2071     O2078   2.439       .  S
Cd2071     O2076   2.458       .  S
Cd2071     O2072   2.454       .  S
Cd2071     O2073   2.474       .  S
C2079      C2080   1.538       .  S
C2079      C2085   1.548       .  S
C2079      C2083   1.537       .  S
C2079      C2754   1.549       .  S
C2080      H2087   1.087       .  S
C2080      C2081   1.367       .  D
C2081      C2082   1.545       .  S
C2081      C2770   1.495       .  S
C2082      C2086   1.545       .  S
C2082      C2084   1.540       .  S
C2082      H2088   1.108       .  S
C2083      H2089   1.087       .  S
C2083      C2084   1.364       .  D
C2085      H2090   1.081       .  S
C2085      C2086   1.368       .  D
C2086      C2738   1.493       .  S
C2091      C2092   1.548       .  S
C2091      C2097   1.537       .  S
C2091      C2095   1.541       .  S
C2091      C2722   1.558       .  S
C2092      C2093   1.362       .  D
C2093      C2094   1.543       .  S
C2093      C2773   1.493       .  S
C2094      C2098   1.544       .  S
C2094      C2096   1.542       .  S
C2094      H2100   1.109       .  S
C2095      C2096   1.369       .  D
C2097      H2102   1.086       .  S
C2097      C2098   1.367       .  D
C2098      C2709   1.492       .  S
O2103      C2106   1.266       .  A
O2103     Cd2108   2.466       .  S
C2104      C2146   1.479       .  S
C2104      O2113   1.263       .  A
C2104      O2109   1.266   1_556  A
O2105      C2111   1.264       .  A
C2106      O2114   1.262       .  A
C2106      C2674   1.487       .  S
C2107      O2110   1.265       .  A
C2107      C2693   1.487       .  S
Cd2108     O2115   2.493       .  S
Cd2108     O2114   2.445       .  S
Cd2108     O2110   2.432       .  S
C2111      C2837   1.496       .  S
O2116      C2119   1.266       .  A
C2117      O2126   1.265       .  A
C2117      O2122   1.263       .  A
C2117      C2661   1.486       .  S
O2118      C2124   1.269       .  A
C2119      C2134   1.478       .  S
C2119      O2127   1.264       .  A
C2120      O2125   1.261       .  A
C2120      C2933   1.493       .  S
Cd2121     O2128   2.426   1_554  S
Cd2121     O2126   2.457   1_554  S
Cd2121     O2122   2.454   1_554  S
Cd2121     O2123   2.474       .  S
C2124      C2690   1.484       .  S
C2129      C2130   1.537       .  S
C2129      C2135   1.546       .  S
C2129      C2133   1.537       .  S
C2129      C2626   1.550       .  S
C2130      H2137   1.086       .  S
C2130      C2131   1.364       .  D
C2131      C2132   1.545       .  S
C2131      C2642   1.494       .  S
C2132      C2136   1.543       .  S
C2132      C2134   1.543       .  S
C2132      H2138   1.108       .  S
C2133      H2139   1.085       .  S
C2133      C2134   1.367       .  D
C2135      H2140   1.079       .  S
C2135      C2136   1.366       .  D
C2136      C2613   1.493       .  S
C2141      C2142   1.537       .  S
C2141      C2147   1.549       .  S
C2141      C2145   1.535       .  S
C2141      C2757   1.551       .  S
C2142      C2143   1.366       .  D
C2143      C2144   1.548       .  S
C2143      C2645   1.498       .  S
C2144      C2148   1.543       .  S
C2144      C2146   1.543       .  S
C2144      H2150   1.109       .  S
C2145      C2146   1.363       .  D
C2147      H2152   1.080       .  S
C2147      C2148   1.369       .  D
C2148      C2594   1.491       .  S
C2153      C2154   1.538       .  S
C2153      C2159   1.550       .  S
C2153      C2157   1.527       .  S
C2153      C2629   1.547       .  S
C2154      C2155   1.370       .  D
C2155      C2156   1.549       .  S
C2155      C2578   1.505       .  S
C2156      C2160   1.540       .  S
C2156      C2158   1.550       .  S
C2156      H2162   1.110       .  S
C2157      C2158   1.363       .  D
C2158      C2166   1.479       .  S
C2159      H2164   1.081       .  S
C2159      C2160   1.367       .  D
C2160      C2565   1.491       .  S
O2165      C2168   1.264       .  A
O2165     Cd2170   2.458       .  S
C2166      O2175   1.264       .  A
C2168      O2176   1.266       .  A
C2168      C2530   1.486       .  S
C2169      O2172   1.264       .  A
C2169      C2549   1.493       .  S
Cd2170     O2177   2.469       .  S
Cd2170     O2176   2.464       .  S
Cd2170     O2171   2.428       .  S
Cd2170     O2172   2.426       .  S
C2173      O2177   1.262       .  A
C2173      C2997   1.496       .  S
O2178      C2181   1.263       .  A
O2178     Cd2183   2.465       .  S
C2179      C2196   1.475       .  S
C2179      O2188   1.265       .  A
C2179      O2184   1.266       .  A
O2180      C2186   1.265       .  A
C2181      O2189   1.266       .  A
C2181      C2517   1.488       .  S
C2182      O2187   1.267       .  A
C2182      C2546   1.489       .  S
Cd2183     O2190   2.482   1_556  S
Cd2183     O2189   2.455       .  S
Cd2183     O2185   2.442       .  S
C2186      C2853   1.496       .  S
C2191      C2192   1.531       .  S
C2191      C2197   1.538       .  S
C2191      C2195   1.544       .  S
C2191      C2725   1.546       .  S
C2192      H2199   1.086       .  S
C2192      C2193   1.369       .  D
C2193      C2194   1.551       .  S
C2193      C2581   1.512       .  S
C2194      C2198   1.538       .  S
C2194      C2196   1.547       .  S
C2194      H2200   1.104       .  S
C2195      H2201   1.081       .  S
C2195      C2196   1.370       .  D
C2197      H2202   1.085       .  S
C2197      C2198   1.361       .  D
C2198      C2498   1.487       .  S
O2203      C2206   1.266       .  A
O2203     Cd2208   2.466       .  S
C2204      C2234   1.479       .  S
C2204      O2213   1.264       .  A
C2204      O2209   1.265       .  A
O2205      C2211   1.268       .  A
O2205     Cd2208   2.471       .  S
C2206      O2214   1.263       .  A
C2206      C2514   1.489       .  S
C2207      O2212   1.264       .  A
C2207      O2210   1.264       .  A
C2207      C3125   1.495       .  S
Cd2208     O2215   2.422       .  S
Cd2208     O2214   2.444       .  S
Cd2208     O2213   2.507       .  S
Cd2208     O2209   2.444       .  S
Cd2208     O2212   2.496       .  S
Cd2208     O2210   2.471       .  S
C2211      O2215   1.265       .  A
C2211      C2485   1.489       .  S
O2216      C2219   1.266       .  A
O2216     Cd2221   2.469       .  S
C2217      C2246   1.478       .  S
C2217      O2226   1.265       .  A
C2217      O2222   1.266       .  A
O2218      C2224   1.269       .  A
O2218     Cd2221   2.475       .  S
C2219      O2227   1.263       .  A
C2219      C2533   1.485       .  S
C2220      O2225   1.266       .  A
C2220      O2223   1.262       .  A
C2220      C3381   1.499       .  S
Cd2221     O2228   2.421       .  S
Cd2221     O2227   2.443       .  S
Cd2221     O2226   2.502       .  S
Cd2221     O2222   2.431       .  S
Cd2221     O2225   2.501       .  S
Cd2221     O2223   2.470       .  S
C2224      O2228   1.264       .  A
C2224      C2482   1.484       .  S
C2229      C2230   1.538       .  S
C2229      C2235   1.529       .  S
C2229      C2233   1.542       .  S
C2229      C2450   1.547       .  S
C2230      H2237   1.087       .  S
C2230      C2231   1.364       .  D
C2231      C2232   1.545       .  S
C2231      C2501   1.487       .  S
C2232      C2236   1.554       .  S
C2232      C2234   1.549       .  S
C2232      H2238   1.110       .  S
C2233      H2239   1.080       .  S
C2233      C2234   1.369       .  D
C2235      H2240   1.085       .  S
C2235      C2236   1.366       .  D
C2236      C2466   1.510       .  S
C2241      C2242   1.546       .  S
C2241      C2247   1.529       .  S
C2241      C2245   1.527       .  S
C2241      C2434   1.547       .  S
C2242      H2249   1.081       .  S
C2242      C2243   1.368       .  D
C2243      C2244   1.551       .  S
C2243      C2562   1.499       .  S
C2244      C2248   1.558       .  S
C2244      C2246   1.551       .  S
C2244      H2250   1.105       .  S
C2245      H2251   1.087       .  S
C2245      C2246   1.362       .  D
C2247      H2252   1.086       .  S
C2247      C2248   1.372       .  D
C2248      C2469   1.518       .  S
C2253      C2254   1.533       .  S
C2253      C2259   1.551       .  S
C2253      C2257   1.536       .  S
C2253      C2405   1.552       .  S
C2254      H2261   1.086       .  S
C2254      C2255   1.365       .  D
C2255      C2256   1.543       .  S
C2255      C2597   1.489       .  S
C2256      C2260   1.544       .  S
C2256      C2258   1.545       .  S
C2256      H2262   1.108       .  S
C2257      H2263   1.086       .  S
C2257      C2258   1.365       .  D
C2258      C2291   1.481       .  S
C2259      H2264   1.080       .  S
C2259      C2260   1.370       .  D
C2260      C2418   1.498       .  S
C2265      C2266   1.549       .  S
C2265      C2271   1.543       .  S
C2265      C2269   1.535       .  S
C2265      C2437   1.550       .  S
C2266      H2273   1.079       .  S
C2266      C2267   1.366       .  D
C2267      C2268   1.539       .  S
C2267      C2610   1.492       .  S
C2268      C2272   1.539       .  S
C2268      C2270   1.545       .  S
C2268      H2274   1.110       .  S
C2269      H2275   1.086       .  S
C2269      C2270   1.366       .  D
C2270      C2278   1.479       .  S
C2271      H2276   1.086       .  S
C2271      C2272   1.367       .  D
C2272      C2421   1.491       .  S
O2277      C2280   1.266       .  A
O2277     Cd2282   2.463       .  S
C2278      O2287   1.263       .  A
C2278      O2283   1.267       .  A
O2279      C2285   1.267       .  A
O2279     Cd2282   2.458       .  S
C2280      O2288   1.264       .  A
C2280      C2658   1.486       .  S
C2281      O2286   1.264       .  A
C2281      O2284   1.264       .  A
C2281      C3301   1.493       .  S
Cd2282     O2289   2.448       .  S
Cd2282     O2288   2.460       .  S
Cd2282     O2287   2.478       .  S
Cd2282     O2283   2.478       .  S
Cd2282     O2286   2.472       .  S
Cd2282     O2284   2.492       .  S
C2285      O2289   1.266       .  A
C2285      C2386   1.485       .  S
O2290      C2293   1.265       .  A
O2290     Cd2295   2.468       .  S
C2291      O2300   1.264       .  A
C2291      O2296   1.266       .  A
O2292      C2298   1.268       .  A
O2292     Cd2295   2.475       .  S
C2293      O2301   1.265       .  A
C2293      C2677   1.489       .  S
C2294      O2299   1.263       .  A
C2294      O2297   1.266       .  A
C2294      C3093   1.500       .  S
Cd2295     O2302   2.436       .  S
Cd2295     O2301   2.446       .  S
Cd2295     O2300   2.492       .  S
Cd2295     O2296   2.470       .  S
Cd2295     O2299   2.485       .  S
Cd2295     O2297   2.497       .  S
C2298      O2302   1.266       .  A
C2298      C2389   1.492       .  S
O2303      C2306   1.265       .  A
O2303     Cd2308   2.454       .  S
C2304      C2346   1.476       .  S
C2304      O2313   1.265       .  A
C2304      O2309   1.265       .  A
O2305      C2311   1.270       .  A
O2305     Cd2308   2.476       .  S
C2306      O2314   1.264       .  A
C2306      C2802   1.487       .  S
C2307      O2312   1.264       .  A
C2307      O2310   1.263       .  A
C2307      C3349   1.493       .  S
Cd2308     O2315   2.434       .  S
Cd2308     O2314   2.449       .  S
Cd2308     O2313   2.470       .  S
Cd2308     O2309   2.462       .  S
Cd2308     O2312   2.504       .  S
Cd2308     O2310   2.452       .  S
C2311      O2315   1.262       .  A
C2311      C2373   1.490       .  S
O2316      C2319   1.265       .  A
O2316     Cd2321   2.461       .  S
C2317      O2326   1.263       .  A
C2317      O2322   1.266       .  A
C2317      C2786   1.485       .  S
O2318      C2324   1.264       .  A
O2318     Cd2321   2.482       .  S
C2319      C2334   1.480       .  S
C2319      O2327   1.266       .  A
C2320      O2325   1.270       .  A
C2320      O2323   1.262       .  A
C2320      C2370   1.488       .  S
Cd2321     O2328   2.479       .  S
Cd2321     O2327   2.490       .  S
Cd2321     O2326   2.455       .  S
Cd2321     O2322   2.457       .  S
Cd2321     O2325   2.491       .  S
Cd2321     O2323   2.428       .  S
C2324      O2328   1.265       .  A
C2324      C3269   1.493       .  S
C2329      C2330   1.537       .  S
C2329      C2335   1.550       .  S
C2329      C2333   1.538       .  S
C2329      C2453   1.554       .  S
C2330      H2337   1.085       .  S
C2330      C2331   1.368       .  D
C2331      C2332   1.543       .  S
C2331      C2706   1.490       .  S
C2332      C2336   1.536       .  S
C2332      C2334   1.541       .  S
C2332      H2338   1.111       .  S
C2333      H2339   1.086       .  S
C2333      C2334   1.368       .  D
C2335      H2340   1.078       .  S
C2335      C2336   1.360       .  D
C2336      C2357   1.484       .  S
C2341      C2342   1.538       .  S
C2341      C2347   1.534       .  S
C2341      C2345   1.554       .  S
C2341      C2402   1.551       .  S
C2342      H2349   1.085       .  S
C2342      C2343   1.366       .  D
C2343      C2344   1.540       .  S
C2343      C2741   1.489       .  S
C2344      C2348   1.542       .  S
C2344      C2346   1.536       .  S
C2344      H2350   1.111       .  S
C2345      H2351   1.080       .  S
C2345      C2346   1.370       .  D
C2347      H2352   1.086       .  S
C2347      C2348   1.363       .  D
C2348      C2354   1.490       .  S
C2353      C2354   1.401       .  A
C2353      C2358   1.405       .  A
C2353      H2360   1.084       .  S
C2354      C2355   1.422       .  A
C2355      C2362   1.508       .  S
C2355      C2356   1.405       .  A
C2356      C2357   1.398       .  A
C2356      H2361   1.084       .  S
C2357      C2358   1.416       .  A
C2358      C2359   1.508       .  S
C2359      H2363   1.111       .  S
C2359      H2364   1.111       .  S
C2359      H2365   1.108       .  S
C2362      H2366   1.108       .  S
C2362      H2367   1.110       .  S
C2362      H2368   1.111       .  S
C2369      C2370   1.403       .  A
C2369      C2374   1.405       .  A
C2369      H2376   1.084       .  S
C2370      C2371   1.419       .  A
C2371      C2378   1.509       .  S
C2371      C2372   1.403       .  A
C2372      C2373   1.404       .  A
C2372      H2377   1.084       .  S
C2373      C2374   1.422       .  A
C2374      C2375   1.509       .  S
C2375      H2379   1.111       .  S
C2375      H2380   1.110       .  S
C2375      H2381   1.110       .  S
C2378      H2382   1.110       .  S
C2378      H2383   1.109       .  S
C2378      H2384   1.111       .  S
C2385      C2386   1.405       .  A
C2385      C2390   1.406       .  A
C2385      H2392   1.084       .  S
C2386      C2387   1.416       .  A
C2387      C2394   1.509       .  S
C2387      C2388   1.403       .  A
C2388      C2389   1.407       .  A
C2388      H2393   1.084       .  S
C2389      C2390   1.419       .  A
C2390      C2391   1.508       .  S
C2391      H2395   1.111       .  S
C2391      H2396   1.110       .  S
C2391      H2397   1.110       .  S
C2394      H2398   1.111       .  S
C2394      H2399   1.110       .  S
C2394      H2400   1.111       .  S
C2401      C2402   1.411       .  A
C2401      C2406   1.409       .  A
C2401      H2408   1.074       .  S
C2402      C2403   1.427       .  A
C2403      C2410   1.518       .  S
C2403      C2404   1.407       .  A
C2404      C2405   1.410       .  A
C2404      H2409   1.073       .  S
C2405      C2406   1.426       .  A
C2406      C2407   1.516       .  S
C2407      H2411   1.111       .  S
C2407      H2412   1.105       .  S
C2407      H2413   1.106       .  S
C2410      H2414   1.104       .  S
C2410      H2415   1.106       .  S
C2410      H2416   1.111       .  S
C2417      C2418   1.407       .  A
C2417      C2422   1.405       .  A
C2417      H2424   1.084       .  S
C2418      C2419   1.416       .  A
C2419      C2426   1.504       .  S
C2419      C2420   1.408       .  A
C2420      C2421   1.404       .  A
C2420      H2425   1.084       .  S
C2421      C2422   1.413       .  A
C2422      C2423   1.504       .  S
C2423      H2427   1.111       .  S
C2423      H2428   1.104       .  S
C2423      H2429   1.108       .  S
C2426      H2430   1.104       .  S
C2426      H2431   1.108       .  S
C2426      H2432   1.111       .  S
C2433      C2434   1.410       .  A
C2433      C2438   1.408       .  A
C2433      H2440   1.075       .  S
C2434      C2435   1.427       .  A
C2435      C2442   1.516       .  S
C2435      C2436   1.404       .  A
C2436      C2437   1.410       .  A
C2436      H2441   1.074       .  S
C2437      C2438   1.427       .  A
C2438      C2439   1.513       .  S
C2439      H2443   1.111       .  S
C2439      H2444   1.111       .  S
C2439      H2445   1.102       .  S
C2442      H2446   1.101       .  S
C2442      H2447   1.111       .  S
C2442      H2448   1.111       .  S
C2449      C2450   1.413       .  A
C2449      C2454   1.413       .  A
C2449      H2456   1.074       .  S
C2450      C2451   1.425       .  A
C2451      C2458   1.515       .  S
C2451      C2452   1.400       .  A
C2452      C2453   1.410       .  A
C2452      H2457   1.071       .  S
C2453      C2454   1.426       .  A
C2454      C2455   1.514       .  S
C2455      H2459   1.111       .  S
C2455      H2460   1.106       .  S
C2455      H2461   1.105       .  S
C2458      H2462   1.111       .  S
C2458      H2463   1.096       .  S
C2458      H2464   1.111       .  S
C2465      C2466   1.410       .  A
C2465      C2470   1.423       .  A
C2465      H2472   1.083       .  S
C2466      C2467   1.418       .  A
C2467      C2474   1.508       .  S
C2467      C2468   1.395       .  A
C2468      C2469   1.407       .  A
C2468      H2473   1.083       .  S
C2469      C2470   1.426       .  A
C2470      C2471   1.505       .  S
C2471      H2475   1.111       .  S
C2471      H2476   1.107       .  S
C2471      H2477   1.110       .  S
C2474      H2478   1.102       .  S
C2474      H2479   1.111       .  S
C2474      H2480   1.110       .  S
C2481      C2482   1.406       .  A
C2481      C2486   1.404       .  A
C2481      H2488   1.084       .  S
C2482      C2483   1.415       .  A
C2483      C2490   1.508       .  S
C2483      C2484   1.402       .  A
C2484      C2485   1.408       .  A
C2484      H2489   1.084       .  S
C2485      C2486   1.417       .  A
C2486      C2487   1.508       .  S
C2487      H2491   1.111       .  S
C2487      H2492   1.110       .  S
C2487      H2493   1.110       .  S
C2490      H2494   1.111       .  S
C2490      H2495   1.110       .  S
C2490      H2496   1.111       .  S
C2497      C2498   1.403       .  A
C2497      C2502   1.407       .  A
C2497      H2504   1.085       .  S
C2498      C2499   1.416       .  A
C2499      C2506   1.506       .  S
C2499      C2500   1.407       .  A
C2500      C2501   1.402       .  A
C2500      H2505   1.085       .  S
C2501      C2502   1.415       .  A
C2502      C2503   1.505       .  S
C2503      H2507   1.110       .  S
C2503      H2508   1.107       .  S
C2503      H2509   1.110       .  S
C2506      H2510   1.105       .  S
C2506      H2511   1.110       .  S
C2506      H2512   1.110       .  S
C2513      C2514   1.406       .  A
C2513      C2518   1.404       .  A
C2513      H2520   1.084       .  S
C2514      C2515   1.419       .  A
C2515      C2522   1.509       .  S
C2515      C2516   1.402       .  A
C2516      C2517   1.404       .  A
C2516      H2521   1.084       .  S
C2517      C2518   1.418       .  A
C2518      C2519   1.509       .  S
C2519      H2523   1.111       .  S
C2519      H2524   1.110       .  S
C2519      H2525   1.110       .  S
C2522      H2526   1.110       .  S
C2522      H2527   1.110       .  S
C2522      H2528   1.111       .  S
C2529      C2530   1.405       .  A
C2529      C2534   1.403       .  A
C2529      H2536   1.084       .  S
C2530      C2531   1.418       .  A
C2531      C2538   1.509       .  S
C2531      C2532   1.404       .  A
C2532      C2533   1.405       .  A
C2532      H2537   1.084       .  S
C2533      C2534   1.417       .  A
C2534      C2535   1.509       .  S
C2535      H2539   1.111       .  S
C2535      H2540   1.109       .  S
C2535      H2541   1.111       .  S
C2538      H2542   1.110       .  S
C2538      H2543   1.110       .  S
C2538      H2544   1.111       .  S
C2545      C2550   1.404       .  A
C2545      H2552   1.084       .  S
C2546      C2547   1.417       .  A
C2547      C2554   1.509       .  S
C2547      C2548   1.404       .  A
C2548      C2549   1.409       .  A
C2548      H2553   1.084       .  S
C2550      C2551   1.508       .  S
C2551      H2555   1.111       .  S
C2551      H2556   1.110       .  S
C2551      H2557   1.110       .  S
C2554      H2558   1.110       .  S
C2554      H2559   1.110       .  S
C2554      H2560   1.111       .  S
C2561      C2562   1.406       .  A
C2561      C2566   1.407       .  A
C2561      H2568   1.084       .  S
C2562      C2563   1.421       .  A
C2563      C2570   1.504       .  S
C2563      C2564   1.410       .  A
C2564      C2565   1.401       .  A
C2564      H2569   1.085       .  S
C2565      C2566   1.413       .  A
C2566      C2567   1.507       .  S
C2567      H2571   1.111       .  S
C2567      H2572   1.109       .  S
C2567      H2573   1.110       .  S
C2570      H2574   1.110       .  S
C2570      H2575   1.100       .  S
C2570      H2576   1.110       .  S
C2577      C2582   1.417       .  A
C2577      H2584   1.083       .  S
C2578      C2579   1.418       .  A
C2579      C2586   1.511       .  S
C2579      C2580   1.399   1_556  A
C2580      H2585   1.083       .  S
C2581      C2582   1.423       .  A
C2582      C2583   1.506       .  S
C2583      H2587   1.111       .  S
C2583      H2588   1.110       .  S
C2583      H2589   1.106       .  S
C2586      H2590   1.111       .  S
C2586      H2591   1.106       .  S
C2586      H2592   1.110   1_556  S
C2593      C2594   1.402       .  A
C2593      C2598   1.401       .  A
C2593      H2600   1.085       .  S
C2594      C2595   1.415       .  A
C2595      C2602   1.505       .  S
C2595      C2596   1.411       .  A
C2596      C2597   1.404       .  A
C2596      H2601   1.084       .  S
C2597      C2598   1.417       .  A
C2598      C2599   1.509       .  S
C2599      H2603   1.111       .  S
C2599      H2604   1.107       .  S
C2599      H2605   1.110       .  S
C2602      H2606   1.108       .  S
C2602      H2607   1.110       .  S
C2602      H2608   1.111       .  S
C2609      C2610   1.405       .  A
C2609      C2614   1.412       .  A
C2609      H2616   1.084       .  S
C2610      C2611   1.419       .  A
C2611      C2618   1.510       .  S
C2611      C2612   1.399       .  A
C2612      C2613   1.403       .  A
C2612      H2617   1.085       .  S
C2613      C2614   1.415       .  A
C2614      C2615   1.505       .  S
C2615      H2619   1.111       .  S
C2615      H2620   1.108       .  S
C2615      H2621   1.110       .  S
C2618      H2622   1.106       .  S
C2618      H2623   1.110       .  S
C2618      H2624   1.111       .  S
C2625      C2626   1.410       .  A
C2625      C2630   1.403       .  A
C2625      H2632   1.073       .  S
C2627      C2634   1.516       .  S
C2627      C2628   1.409       .  A
C2628      C2629   1.411       .  A
C2628      H2633   1.074       .  S
C2630      C2631   1.516       .  S
C2631      H2635   1.111       .  S
C2631      H2636   1.101       .  S
C2631      H2637   1.111       .  S
C2634      H2638   1.106       .  S
C2634      H2639   1.105       .  S
C2634      H2640   1.111       .  S
C2641      C2646   1.411       .  A
C2641      H2648   1.084       .  S
C2642      C2643   1.412       .  A
C2643      C2650   1.507       .  S
C2643      C2644   1.408       .  A
C2644      H2649   1.084       .  S
C2645      C2646   1.414       .  A
C2646      C2647   1.506       .  S
C2647      H2651   1.111       .  S
C2647      H2652   1.108       .  S
C2647      H2653   1.109       .  S
C2650      H2654   1.108       .  S
C2650      H2655   1.110       .  S
C2650      H2656   1.111       .  S
C2657      C2658   1.405       .  A
C2657      C2662   1.403       .  A
C2657      H2664   1.084       .  S
C2658      C2659   1.418       .  A
C2659      C2666   1.508       .  S
C2659      C2660   1.403       .  A
C2660      C2661   1.405       .  A
C2660      H2665   1.084       .  S
C2661      C2662   1.418       .  A
C2662      C2663   1.509       .  S
C2663      H2667   1.111       .  S
C2663      H2668   1.110       .  S
C2663      H2669   1.110       .  S
C2666      H2670   1.109       .  S
C2666      H2671   1.110       .  S
C2666      H2672   1.111       .  S
C2673      C2674   1.405       .  A
C2673      C2678   1.404       .  A
C2673      H2680   1.084       .  S
C2674      C2675   1.418       .  A
C2675      C2682   1.509       .  S
C2675      C2676   1.402       .  A
C2676      C2677   1.406       .  A
C2676      H2681   1.084       .  S
C2677      C2678   1.418       .  A
C2678      C2679   1.508       .  S
C2679      H2683   1.111       .  S
C2679      H2684   1.110       .  S
C2679      H2685   1.110       .  S
C2682      H2686   1.110       .  S
C2682      H2687   1.110       .  S
C2682      H2688   1.111       .  S
C2689      C2690   1.406       .  A
C2689      C2694   1.402       .  A
C2689      H2696   1.084       .  S
C2690      C2691   1.415       .  A
C2691      C2698   1.508       .  S
C2691      C2692   1.403       .  A
C2692      C2693   1.408       .  A
C2692      H2697   1.084       .  S
C2693      C2694   1.416       .  A
C2694      C2695   1.508       .  S
C2695      H2699   1.111       .  S
C2695      H2700   1.110       .  S
C2698      H2702   1.110       .  S
C2698      H2704   1.111       .  S
C2705      C2706   1.403       .  A
C2705      C2710   1.410       .  A
C2705      H2712   1.084       .  S
C2706      C2707   1.415       .  A
C2707      C2714   1.508       .  S
C2707      C2708   1.406       .  A
C2708      C2709   1.404       .  A
C2708      H2713   1.084       .  S
C2709      C2710   1.415       .  A
C2710      C2711   1.505       .  S
C2711      H2715   1.111       .  S
C2711      H2716   1.108       .  S
C2711      H2717   1.110       .  S
C2714      H2718   1.110       .  S
C2714      H2719   1.108       .  S
C2714      H2720   1.111       .  S
C2721      C2726   1.401       .  A
C2721      H2728   1.067       .  S
C2722      C2723   1.427       .  A
C2723      C2730   1.515       .  S
C2724      C2725   1.411       .  A
C2724      H2729   1.075       .  S
C2725      C2726   1.426       .  A
C2726      C2727   1.520       .  S
C2727      H2731   1.110       .  S
C2727      H2732   1.105       .  S
C2727      H2733   1.105       .  S
C2730      H2734   1.106       .  S
C2730      H2735   1.106       .  S
C2730      H2736   1.111       .  S
C2737      C2738   1.404       .  A
C2737      C2742   1.405       .  A
C2737      H2744   1.084       .  S
C2738      C2739   1.415       .  A
C2739      C2746   1.505       .  S
C2739      C2740   1.412       .  A
C2740      C2741   1.405       .  A
C2740      H2745   1.084       .  S
C2741      C2742   1.414       .  A
C2742      C2743   1.507       .  S
C2743      H2747   1.110       .  S
C2743      H2748   1.109       .  S
C2743      H2749   1.110       .  S
C2746      H2750   1.109       .  S
C2746      H2751   1.110       .  S
C2746      H2752   1.111       .  S
C2753      C2754   1.410       .  A
C2753      C2758   1.410       .  A
C2753      H2760   1.074       .  S
C2755      C2762   1.518       .  S
C2755      C2756   1.409       .  A
C2756      C2757   1.411       .  A
C2756      H2761   1.073       .  S
C2758      C2759   1.517       .  S
C2759      H2763   1.111       .  S
C2759      H2764   1.105       .  S
C2759      H2765   1.105       .  S
C2762      H2766   1.105       .  S
C2762      H2768   1.111       .  S
C2769      C2774   1.408       .  A
C2769      H2776   1.084       .  S
C2770      C2771   1.414       .  A
C2771      C2778   1.507       .  S
C2771      C2772   1.407       .  A
C2772      H2777   1.084       .  S
C2773      C2774   1.411       .  A
C2774      C2775   1.505       .  S
C2775      H2779   1.111       .  S
C2775      H2780   1.109       .  S
C2775      H2781   1.110       .  S
C2778      H2782   1.107       .  S
C2778      H2783   1.110       .  S
C2778      H2784   1.111       .  S
C2785      C2786   1.405       .  A
C2785      C2790   1.402       .  A
C2785      H2792   1.084       .  S
C2786      C2787   1.418       .  A
C2787      C2794   1.508       .  S
C2787      C2788   1.404       .  A
C2788      C2789   1.404       .  A
C2788      H2793   1.084       .  S
C2789      C2790   1.416       .  A
C2790      C2791   1.509       .  S
C2791      H2795   1.111       .  S
C2791      H2796   1.111       .  S
C2791      H2797   1.110       .  S
C2794      H2798   1.110       .  S
C2794      H2799   1.110       .  S
C2794      H2800   1.111       .  S
C2801      C2802   1.406       .  A
C2801      C2806   1.404       .  A
C2801      H2808   1.084       .  S
C2802      C2803   1.418       .  A
C2803      C2810   1.509       .  S
C2803      C2804   1.402       .  A
C2804      C2805   1.405       .  A
C2804      H2809   1.084       .  S
C2805      C2806   1.418       .  A
C2806      C2807   1.509       .  S
C2807      H2811   1.111       .  S
C2807      H2812   1.110       .  S
C2807      H2813   1.110       .  S
C2810      H2814   1.110       .  S
C2810      H2815   1.110       .  S
C2810      H2816   1.111       .  S
C2817      C2822   1.402       .  A
C2817      H2824   1.084       .  S
C2818      C2819   1.422       .  A
C2819      C2826   1.509       .  S
C2819      C2820   1.404       .  A
C2820      C2821   1.402       .  A
C2820      H2825   1.084       .  S
C2822      C2823   1.510       .  S
C2823      H2827   1.111       .  S
C2823      H2828   1.109       .  S
C2823      H2829   1.110       .  S
C2826      H2830   1.110       .  S
C2826      H2831   1.110       .  S
C2826      H2832   1.111       .  S
C2833      C2834   1.407       .  A
C2833      C2838   1.408   1_655  A
C2833      H2840   1.084       .  S
C2834      C2835   1.421       .  A
C2835      C2842   1.509       .  S
C2835      C2836   1.406   1_655  A
C2836      C2837   1.405       .  A
C2836      H2841   1.084       .  S
C2837      C2838   1.420       .  A
C2838      C2839   1.508       .  S
C2839      H2843   1.111       .  S
C2839      H2844   1.110       .  S
C2842      H2846   1.110       .  S
C2842      H2848   1.111       .  S
C2849      C2850   1.406       .  A
C2849      C2854   1.407       .  A
C2849      H2856   1.084       .  S
C2850      C2851   1.419       .  A
C2851      C2858   1.508       .  S
C2851      C2852   1.406       .  A
C2852      C2853   1.407       .  A
C2852      H2857   1.084       .  S
C2853      C2854   1.420       .  A
C2854      C2855   1.508       .  S
C2855      H2859   1.111       .  S
C2855      H2861   1.110       .  S
C2858      H2863   1.110       .  S
C2858      H2864   1.111       .  S
C2865      C2866   1.408       .  A
C2865      C2870   1.405       .  A
C2865      H2872   1.084       .  S
C2867      C2874   1.508       .  S
C2867      C2868   1.405       .  A
C2868      H2873   1.084       .  S
C2869      C2870   1.416       .  A
C2870      C2871   1.508       .  S
C2871      H2875   1.111       .  S
C2871      H2876   1.110       .  S
C2871      H2877   1.110       .  S
C2874      H2878   1.110       .  S
C2874      H2879   1.110       .  S
C2874      H2880   1.111       .  S
C2881      C2882   1.398       .  A
C2881      C2886   1.404       .  A
C2881      H2888   1.084       .  S
C2883      C2890   1.509       .  S
C2883      C2884   1.405       .  A
C2884      C2885   1.399       .  A
C2884      H2889   1.084       .  S
C2886      C2887   1.508       .  S
C2887      H2891   1.111       .  S
C2887      H2892   1.108       .  S
C2887      H2893   1.110       .  S
C2890      H2894   1.110       .  S
C2890      H2895   1.107       .  S
C2890      H2896   1.111       .  S
C2897      C2898   1.414   1_554  A
C2897      C2902   1.411       .  A
C2897      H2904   1.075       .  S
C2899      C2906   1.517       .  S
C2899      C2900   1.404       .  A
C2900      C2901   1.410       .  A
C2900      H2905   1.073       .  S
C2902      C2903   1.511       .  S
C2903      H2907   1.111       .  S
C2903      H2908   1.110       .  S
C2906      H2911   1.111       .  S
C2906      H2912   1.104       .  S
C2913      C2918   1.406       .  A
C2913      H2920   1.084       .  S
C2914      C2915   1.409       .  A
C2915      C2922   1.505       .  S
C2915      C2916   1.405       .  A
C2916      H2921   1.084       .  S
C2917      C2918   1.417       .  A
C2918      C2919   1.506       .  S
C2919      H2923   1.111       .  S
C2919      H2924   1.105       .  S
C2919      H2925   1.107       .  S
C2922      H2926   1.109       .  S
C2922      H2927   1.109       .  S
C2922      H2928   1.111       .  S
C2929      C2934   1.406   1_545  A
C2929      H2936   1.084       .  S
C2930      C2931   1.420       .  A
C2931      C2938   1.508       .  S
C2931      C2932   1.406   1_545  A
C2932      C2933   1.405       .  A
C2932      H2937   1.084       .  S
C2934      C2935   1.508       .  S
C2935      H2939   1.111       .  S
C2935      H2941   1.110       .  S
C2938      H2942   1.110       .  S
C2938      H2943   1.110       .  S
C2938      H2944   1.111       .  S
C2945      C2946   1.405       .  A
C2945      C2950   1.406       .  A
C2945      H2952   1.084       .  S
C2947      C2954   1.508       .  S
C2947      C2948   1.406       .  A
C2948      H2953   1.084       .  S
C2949      C2950   1.419       .  A
C2950      C2951   1.508       .  S
C2951      H2955   1.111       .  S
C2951      H2956   1.110       .  S
C2954      H2959   1.109       .  S
C2954      H2960   1.111       .  S
C2961      C2966   1.403       .  A
C2961      H2968   1.084       .  S
C2962      C2963   1.417       .  A
C2963      C2970   1.508       .  S
C2963      C2964   1.406       .  A
C2964      C2965   1.408       .  A
C2964      H2969   1.084       .  S
C2966      C2967   1.508       .  S
C2967      H2971   1.111       .  S
C2967      H2973   1.110       .  S
C2970      H2974   1.110       .  S
C2970      H2976   1.111       .  S
C2977      C2978   1.406       .  A
C2977      C2982   1.406   1_655  A
C2977      H2984   1.084       .  S
C2978      C2979   1.420       .  A
C2979      C2986   1.509       .  S
C2979      C2980   1.404   1_655  A
C2980      C2981   1.406       .  A
C2980      H2985   1.084       .  S
C2981      C2982   1.418       .  A
C2982      C2983   1.508       .  S
C2983      H2987   1.111       .  S
C2983      H2988   1.110       .  S
C2986      H2990   1.110       .  S
C2986      H2992   1.111       .  S
C2993      C2994   1.405       .  A
C2993      C2998   1.407   1_545  A
C2993      H3000   1.084       .  S
C2995      C3002   1.507       .  S
C2995      C2996   1.410   1_545  A
C2996      C2997   1.406       .  A
C2996      H3001   1.084       .  S
C2998      C2999   1.508       .  S
C2999      H3003   1.111       .  S
C2999      H3005   1.110       .  S
C3002      H3006   1.109       .  S
C3002      H3008   1.111       .  S
C3009      C3010   1.403       .  A
C3009      C3014   1.405       .  A
C3009      H3016   1.084       .  S
C3011      C3018   1.508       .  S
C3011      C3012   1.405       .  A
C3012      H3017   1.084       .  S
C3013      C3014   1.422       .  A
C3014      C3015   1.509       .  S
C3015      H3019   1.111       .  S
C3015      H3021   1.110       .  S
C3018      H3022   1.110       .  S
C3018      H3024   1.111       .  S
C3025      C3030   1.408       .  A
C3025      H3032   1.073       .  S
C3026      C3027   1.426       .  A
C3027      C3034   1.517       .  S
C3027      C3028   1.404       .  A
C3028      H3033   1.072       .  S
C3029      C3030   1.425       .  A
C3030      C3031   1.517       .  S
C3031      H3035   1.111       .  S
C3031      H3036   1.105       .  S
C3031      H3037   1.107       .  S
C3034      H3038   1.104       .  S
C3034      H3039   1.105       .  S
C3034      H3040   1.110       .  S
C3041      C3046   1.404       .  A
C3041      H3048   1.072       .  S
C3042      C3043   1.422       .  A
C3043      C3050   1.514       .  S
C3043      C3044   1.405   1_556  A
C3044      H3049   1.073   1_554  S
C3045      C3046   1.424       .  A
C3046      C3047   1.516       .  S
C3047      H3051   1.111       .  S
C3047      H3052   1.111       .  S
C3047      H3053   1.101       .  S
C3050      H3054   1.102       .  S
C3050      H3055   1.111       .  S
C3050      H3056   1.110       .  S
C3057      C3062   1.406       .  A
C3057      H3064   1.084       .  S
C3058      C3059   1.408       .  A
C3059      C3066   1.507       .  S
C3059      C3060   1.405       .  A
C3060      H3065   1.084       .  S
C3061      C3062   1.415       .  A
C3062      C3063   1.505       .  S
C3063      H3067   1.111       .  S
C3063      H3068   1.106       .  S
C3063      H3069   1.107       .  S
C3066      H3070   1.110       .  S
C3066      H3071   1.109       .  S
C3066      H3072   1.111       .  S
C3073      C3074   1.402       .  A
C3073      C3078   1.407       .  A
C3073      H3080   1.084       .  S
C3074      C3075   1.411       .  A
C3075      C3082   1.506       .  S
C3075      C3076   1.407       .  A
C3076      C3077   1.404       .  A
C3076      H3081   1.084       .  S
C3077      C3078   1.412       .  A
C3078      C3079   1.506       .  S
C3079      H3083   1.111       .  S
C3079      H3084   1.111       .  S
C3079      H3085   1.110       .  S
C3082      H3086   1.110       .  S
C3082      H3087   1.111       .  S
C3082      H3088   1.111       .  S
C3089      C3090   1.407       .  A
C3089      C3094   1.408   1_655  A
C3089      H3096   1.084       .  S
C3090      C3091   1.421       .  A
C3091      C3098   1.508       .  S
C3091      C3092   1.409   1_655  A
C3092      C3093   1.407       .  A
C3092      H3097   1.084       .  S
C3093      C3094   1.421       .  A
C3094      C3095   1.508       .  S
C3095      H3099   1.111       .  S
C3095      H3100   1.110       .  S
C3095      H3101   1.110       .  S
C3098      H3102   1.110       .  S
C3098      H3103   1.110       .  S
C3098      H3104   1.111       .  S
C3105      C3106   1.406       .  A
C3105      C3110   1.404       .  A
C3105      H3112   1.084       .  S
C3106      C3107   1.418       .  A
C3107      C3114   1.509       .  S
C3107      C3108   1.402       .  A
C3108      C3109   1.405       .  A
C3108      H3113   1.084       .  S
C3109      C3110   1.419       .  A
C3110      C3111   1.509       .  S
C3111      H3115   1.111       .  S
C3111      H3116   1.110       .  S
C3111      H3117   1.110       .  S
C3114      H3118   1.110       .  S
C3114      H3119   1.110       .  S
C3114      H3120   1.111       .  S
C3121      C3122   1.408       .  A
C3121      C3126   1.409       .  A
C3121      H3128   1.084       .  S
C3122      C3123   1.421       .  A
C3123      C3130   1.508       .  S
C3123      C3124   1.406       .  A
C3124      C3125   1.405       .  A
C3124      H3129   1.084       .  S
C3125      C3126   1.419       .  A
C3126      C3127   1.508       .  S
C3127      H3131   1.111       .  S
C3127      H3132   1.110       .  S
C3127      H3133   1.110       .  S
C3130      H3134   1.110       .  S
C3130      H3135   1.110       .  S
C3130      H3136   1.111       .  S
C3137      C3138   1.406       .  A
C3137      C3142   1.402       .  A
C3137      H3144   1.084       .  S
C3138      C3139   1.419       .  A
C3139      C3146   1.509       .  S
C3139      C3140   1.403       .  A
C3140      C3141   1.405       .  A
C3140      H3145   1.084       .  S
C3141      C3142   1.417       .  A
C3142      C3143   1.509       .  S
C3143      H3147   1.111       .  S
C3143      H3148   1.110       .  S
C3143      H3149   1.110       .  S
C3146      H3150   1.110       .  S
C3146      H3151   1.110       .  S
C3146      H3152   1.111       .  S
C3153      C3154   1.409       .  A
C3153      C3158   1.404       .  A
C3153      H3160   1.084       .  S
C3154      C3155   1.416       .  A
C3155      C3162   1.508       .  S
C3155      C3156   1.404       .  A
C3156      C3157   1.408       .  A
C3156      H3161   1.084       .  S
C3157      C3158   1.415       .  A
C3158      C3159   1.508       .  S
C3159      H3163   1.111       .  S
C3159      H3164   1.110       .  S
C3159      H3165   1.110       .  S
C3162      H3166   1.110       .  S
C3162      H3167   1.110       .  S
C3162      H3168   1.111       .  S
C3169      C3170   1.403       .  A
C3169      C3174   1.406       .  A
C3169      H3176   1.084       .  S
C3170      C3171   1.414       .  A
C3171      C3178   1.505       .  S
C3171      C3172   1.413       .  A
C3172      C3173   1.405       .  A
C3172      H3177   1.084       .  S
C3173      C3174   1.415       .  A
C3174      C3175   1.508       .  S
C3175      H3179   1.111       .  S
C3175      H3180   1.110       .  S
C3175      H3181   1.108       .  S
C3178      H3182   1.109       .  S
C3178      H3183   1.110       .  S
C3178      H3184   1.111       .  S
C3185      C3186   1.409       .  A
C3185      C3190   1.399       .  A
C3185      H3192   1.083       .  S
C3186      C3187   1.424       .  A
C3187      C3194   1.506       .  S
C3187      C3188   1.419       .  A
C3188      C3189   1.409       .  A
C3188      H3193   1.083       .  S
C3189      C3190   1.418       .  A
C3190      C3191   1.511       .  S
C3191      H3195   1.111       .  S
C3191      H3196   1.106       .  S
C3191      H3197   1.110       .  S
C3194      H3198   1.110       .  S
C3194      H3199   1.107       .  S
C3194      H3200   1.111       .  S
C3201      C3202   1.403       .  A
C3201      C3206   1.402       .  A
C3201      H3208   1.085       .  S
C3202      C3203   1.416       .  A
C3203      C3210   1.505       .  S
C3203      C3204   1.410       .  A
C3204      C3205   1.404       .  A
C3204      H3209   1.084       .  S
C3205      C3206   1.417       .  A
C3206      C3207   1.507       .  S
C3207      H3211   1.111       .  S
C3207      H3212   1.107       .  S
C3207      H3213   1.110       .  S
C3210      H3214   1.108       .  S
C3210      H3215   1.110       .  S
C3210      H3216   1.111       .  S
C3217      C3218   1.411       .  A
C3217      C3222   1.409       .  A
C3217      H3224   1.074       .  S
C3218      C3219   1.427       .  A
C3219      C3226   1.517       .  S
C3219      C3220   1.407       .  A
C3220      C3221   1.410       .  A
C3220      H3225   1.073       .  S
C3221      C3222   1.426       .  A
C3222      C3223   1.517       .  S
C3223      H3227   1.111       .  S
C3223      H3228   1.106       .  S
C3223      H3229   1.105       .  S
C3226      H3230   1.106       .  S
C3226      H3231   1.104       .  S
C3226      H3232   1.110       .  S
C3233      C3234   1.404       .  A
C3233      C3238   1.410       .  A
C3233      H3240   1.084       .  S
C3234      C3235   1.415       .  A
C3235      C3242   1.507       .  S
C3235      C3236   1.402       .  A
C3236      C3237   1.401       .  A
C3236      H3241   1.084       .  S
C3237      C3238   1.413       .  A
C3238      C3239   1.505       .  S
C3239      H3243   1.111       .  S
C3239      H3244   1.111       .  S
C3239      H3245   1.108       .  S
C3242      H3246   1.110       .  S
C3242      H3247   1.109       .  S
C3242      H3248   1.110       .  S
C3249      C3250   1.403       .  A
C3249      C3254   1.408       .  A
C3249      H3256   1.084       .  S
C3250      C3251   1.421       .  A
C3251      C3258   1.508       .  S
C3251      C3252   1.404       .  A
C3252      C3253   1.399       .  A
C3252      H3257   1.085       .  S
C3253      C3254   1.417       .  A
C3254      C3255   1.507       .  S
C3255      H3259   1.111       .  S
C3255      H3260   1.110       .  S
C3255      H3261   1.108       .  S
C3258      H3262   1.110       .  S
C3258      H3263   1.108       .  S
C3258      H3264   1.111       .  S
C3265      C3266   1.406       .  A
C3265      C3270   1.406       .  A
C3265      H3272   1.084       .  S
C3266      C3267   1.419       .  A
C3267      C3274   1.508       .  S
C3267      C3268   1.407       .  A
C3268      C3269   1.406       .  A
C3268      H3273   1.084       .  S
C3269      C3270   1.419       .  A
C3270      C3271   1.508       .  S
C3271      H3275   1.111       .  S
C3271      H3276   1.110       .  S
C3271      H3277   1.110       .  S
C3274      H3278   1.109       .  S
C3274      H3279   1.110       .  S
C3274      H3280   1.111       .  S
C3281      C3282   1.406       .  A
C3281      C3286   1.402       .  A
C3281      H3288   1.084       .  S
C3282      C3283   1.418       .  A
C3283      C3290   1.509       .  S
C3283      C3284   1.403       .  A
C3284      C3285   1.406       .  A
C3284      H3289   1.084       .  S
C3285      C3286   1.417       .  A
C3286      C3287   1.509       .  S
C3287      H3291   1.111       .  S
C3287      H3292   1.109       .  S
C3287      H3293   1.110       .  S
C3290      H3294   1.110       .  S
C3290      H3295   1.110       .  S
C3290      H3296   1.111       .  S
C3297      C3298   1.407       .  A
C3297      C3302   1.407   1_545  A
C3297      H3304   1.084       .  S
C3298      C3299   1.417       .  A
C3299      C3306   1.508       .  S
C3299      C3300   1.405   1_545  A
C3300      C3301   1.407       .  A
C3300      H3305   1.084       .  S
C3301      C3302   1.417       .  A
C3302      C3303   1.507       .  S
C3303      H3307   1.111       .  S
C3303      H3308   1.110       .  S
C3303      H3309   1.109       .  S
C3306      H3310   1.110       .  S
C3306      H3311   1.110       .  S
C3306      H3312   1.111   1_545  S
C3313      C3314   1.404       .  A
C3313      C3318   1.402       .  A
C3313      H3320   1.084       .  S
C3314      C3315   1.416       .  A
C3315      C3322   1.508       .  S
C3315      C3316   1.404       .  A
C3316      C3317   1.406       .  A
C3316      H3321   1.084       .  S
C3317      C3318   1.418       .  A
C3318      C3319   1.509       .  S
C3319      H3323   1.111       .  S
C3319      H3324   1.110       .  S
C3319      H3325   1.110       .  S
C3322      H3326   1.110       .  S
C3322      H3327   1.110       .  S
C3322      H3328   1.111       .  S
C3329      C3330   1.405       .  A
C3329      C3334   1.405       .  A
C3329      H3336   1.084       .  S
C3330      C3331   1.420       .  A
C3331      C3338   1.509       .  S
C3331      C3332   1.403       .  A
C3332      C3333   1.403       .  A
C3332      H3337   1.084       .  S
C3333      C3334   1.420       .  A
C3334      C3335   1.509       .  S
C3335      H3339   1.111       .  S
C3335      H3340   1.109       .  S
C3335      H3341   1.110       .  S
C3338      H3342   1.109       .  S
C3338      H3343   1.110       .  S
C3338      H3344   1.111       .  S
C3345      C3346   1.407       .  A
C3345      C3350   1.407   1_655  A
C3345      H3352   1.084       .  S
C3346      C3347   1.419       .  A
C3347      C3354   1.509       .  S
C3347      C3348   1.403   1_655  A
C3348      C3349   1.405       .  A
C3348      H3353   1.084       .  S
C3349      C3350   1.418       .  A
C3350      C3351   1.507       .  S
C3351      H3355   1.111       .  S
C3351      H3356   1.110       .  S
C3351      H3357   1.110       .  S
C3354      H3358   1.110       .  S
C3354      H3359   1.110       .  S
C3354      H3360   1.111       .  S
C3361      C3362   1.406       .  A
C3361      C3366   1.407       .  A
C3361      H3368   1.084       .  S
C3362      C3363   1.418       .  A
C3363      C3370   1.509       .  S
C3363      C3364   1.401       .  A
C3364      C3365   1.404       .  A
C3364      H3369   1.084       .  S
C3365      C3366   1.419       .  A
C3366      C3367   1.508       .  S
C3367      H3371   1.111       .  S
C3367      H3372   1.110       .  S
C3367      H3373   1.110       .  S
C3370      H3374   1.110       .  S
C3370      H3375   1.111       .  S
C3370      H3376   1.111       .  S
C3377      C3378   1.404       .  A
C3377      C3382   1.407   1_545  A
C3377      H3384   1.084       .  S
C3378      C3379   1.421       .  A
C3379      C3386   1.509       .  S
C3379      C3380   1.408   1_545  A
C3380      C3381   1.407       .  A
C3380      H3385   1.084       .  S
C3381      C3382   1.421       .  A
C3382      C3383   1.508       .  S
C3383      H3387   1.111       .  S
C3383      H3388   1.110       .  S
C3383      H3389   1.110       .  S
C3386      H3390   1.110       .  S
C3386      H3391   1.110       .  S
C3386      H3392   1.111       .  S
C3393      C3394   1.404       .  A
C3393      C3398   1.402       .  A
C3393      H3400   1.084       .  S
C3394      C3395   1.419       .  A
C3395      C3402   1.509       .  S
C3395      C3396   1.405       .  A
C3396      C3397   1.405       .  A
C3396      H3401   1.084       .  S
C3397      C3398   1.417       .  A
C3398      C3399   1.509       .  S
C3399      H3403   1.111       .  S
C3399      H3404   1.110       .  S
C3399      H3405   1.109       .  S
C3402      H3406   1.110       .  S
C3402      H3407   1.110       .  S
C3402      H3408   1.111       .  S
C3409      C3410   1.405       .  A
C3409      C3414   1.402       .  A
C3409      H3416   1.084       .  S
C3410      C3411   1.419       .  A
C3411      C3418   1.509       .  S
C3411      C3412   1.403       .  A
C3412      C3413   1.404       .  A
C3412      H3417   1.084       .  S
C3413      C3414   1.420       .  A
C3414      C3415   1.510       .  S
C3415      H3419   1.111       .  S
C3415      H3420   1.110       .  S
C3415      H3421   1.110       .  S
C3418      H3422   1.110       .  S
C3418      H3423   1.110       .  S
C3418      H3424   1.111       .  S
C3425      C3426   1.402       .  A
C3425      C3430   1.401       .  A
C3425      H3432   1.085       .  S
C3426      C3427   1.414       .  A
C3427      C3434   1.505       .  S
C3427      C3428   1.412       .  A
C3428      C3429   1.406       .  A
C3428      H3433   1.084       .  S
C3429      C3430   1.416       .  A
C3430      C3431   1.507       .  S
C3431      H3435   1.110       .  S
C3431      H3436   1.107       .  S
C3431      H3437   1.110       .  S
C3434      H3438   1.109       .  S
C3434      H3439   1.110       .  S
C3434      H3440   1.111       .  S
C3441      C3442   1.410       .  A
C3441      C3446   1.408       .  A
C3441      H3448   1.074       .  S
C3442      C3443   1.427       .  A
C3443      C3450   1.519       .  S
C3443      C3444   1.405       .  A
C3444      C3445   1.410       .  A
C3444      H3449   1.072       .  S
C3445      C3446   1.427       .  A
C3446      C3447   1.517       .  S
C3447      H3451   1.111       .  S
C3447      H3452   1.106       .  S
C3447      H3453   1.104       .  S
C3450      H3454   1.105       .  S
C3450      H3455   1.104       .  S
C3450      H3456   1.111       .  S
C3457      C3458   1.405       .  A
C3457      C3462   1.412       .  A
C3457      H3464   1.084       .  S
C3458      C3459   1.419       .  A
C3459      C3466   1.509       .  S
C3459      C3460   1.403       .  A
C3460      C3461   1.403       .  A
C3460      H3465   1.085       .  S
C3461      C3462   1.417       .  A
C3462      C3463   1.506       .  S
C3463      H3467   1.111       .  S
C3463      H3468   1.110       .  S
C3463      H3469   1.107       .  S
C3466      H3470   1.110       .  S
C3466      H3471   1.105       .  S
C3466      H3472   1.111       .  S
C3473      C3474   1.411       .  A
C3473      C3478   1.404       .  A
C3473      H3480   1.072       .  S
C3474      C3475   1.424       .  A
C3475      C3482   1.517       .  S
C3475      C3476   1.406       .  A
C3476      C3477   1.412       .  A
C3476      H3481   1.072       .  S
C3477      C3478   1.425       .  A
C3478      C3479   1.518       .  S
C3479      H3483   1.110       .  S
C3479      H3484   1.105       .  S
C3479      H3485   1.104       .  S
C3482      H3486   1.111       .  S
C3482      H3487   1.106       .  S
C3482      H3488   1.105       .  S
C3489      C3490   1.406       .  A
C3489      C3494   1.408       .  A
C3489      H3496   1.084       .  S
C3490      C3491   1.410       .  A
C3491      C3498   1.504       .  S
C3491      C3492   1.406       .  A
C3492      C3493   1.408       .  A
C3492      H3497   1.084       .  S
C3493      C3494   1.414       .  A
C3494      C3495   1.506       .  S
C3495      H3499   1.111       .  S
C3495      H3500   1.107       .  S
C3495      H3501   1.109       .  S
C3498      H3502   1.109       .  S
C3498      H3503   1.106       .  S
C3498      H3504   1.111       .  S
