geometry optimzed in LAMMPS
_audit_creation_date              2020-11-30 
_audit_creation_method            'lammps2cif' 
_symmetry_space_group_name_H-M    'P1' 
_symmetry_Int_Tables_number       1 
_symmetry_cell_setting            triclinic 
loop_ 
_symmetry_equiv_pos_as_xyz 
  x,y,z 
_cell_length_a                    31.31900671 
_cell_length_b                    31.2569874573948 
_cell_length_c                    29.833581864173848 
_cell_angle_alpha                 88.95740554772175 
_cell_angle_beta                  90.7317979671958 
_cell_angle_gamma                 120.90588120528092 
loop_ 
_atom_site_label 
_atom_site_type_symbol 
_atom_site_fract_x 
_atom_site_fract_y 
_atom_site_fract_z 
_atom_site_charge 
C1          C  0.10831514  0.76981692  0.15990130     0.03800
C2          C  0.10563832  0.72533513  0.17023177    -0.12300
C3          C  0.06073333  0.67977341  0.16966817     0.01300
C4          C  0.01633325  0.67958121  0.15719380    -0.10800
C5          C  0.01895951  0.72581972  0.14628066     0.03800
C6          C  0.06531517  0.77034217  0.14954421    -0.10300
H7          H  0.14012114  0.72678573  0.17876737     0.09400
H8          H  0.98120744  0.64470802  0.15524497     0.07000
H9          H  0.06899472  0.80596766  0.14123574     0.06800
C10         C  0.43214459  0.07896855  0.12537204     0.03800
C11         C  0.47525961  0.08065919  0.13877621    -0.12300
C12         C  0.51675111  0.12494312  0.15359539     0.01300
C13         C  0.51608726  0.17060019  0.14794727    -0.10800
C14         C  0.47240965  0.16880466  0.12957905     0.03800
C15         C  0.43108638  0.12225176  0.11979607    -0.10300
H16         H  0.47332183  0.04520577  0.14312516     0.09400
H17         H  0.54749597  0.20570322  0.15869830     0.07000
H18         H  0.39663909  0.11900315  0.10792865     0.06800
C19         C  0.07910984  0.40648606  0.31688600     0.03800
C20         C  0.08297072  0.44965653  0.29989495    -0.12300
C21         C  0.12762531  0.49564228  0.30136847     0.01300
C22         C  0.17148563  0.49658858  0.31780120    -0.10800
C23         C  0.16830099  0.45073733  0.33194889     0.03800
C24         C  0.12137622  0.40686112  0.33173500    -0.10300
H25         H  0.04999069  0.44691368  0.28491060     0.09400
H26         H  0.20667157  0.53144786  0.31917067     0.07000
H27         H  0.11676418  0.37230639  0.34530208     0.06800
C28         C  0.75040676  0.09651791  0.36213096     0.03800
C29         C  0.70552131  0.09287111  0.35124162    -0.12300
C30         C  0.66711579  0.04986368  0.33084302     0.01300
C31         C  0.66895844  0.00499481  0.33396862    -0.10800
C32         C  0.71167488  0.00666717  0.35369433     0.03800
C33         C  0.75204066  0.05296305  0.36610235    -0.10300
H34         H  0.70379991  0.12649398  0.35259525     0.09400
H35         H  0.63950000  0.97072662  0.31972683     0.07000
H36         H  0.78649765  0.05534733  0.37627426     0.06800
O37         O  0.60449554  0.02825530  0.27156367    -0.71100
O38         O  0.54782936  0.07337738  0.18116279    -0.71300
O39         O  0.63238532  0.07014531  0.18959479    -0.71100
O40         O  0.51766823  0.03007235  0.26241337    -0.71200
O41         O  0.55584329  0.10411329  0.29062437    -0.71100
O42         O  0.66989787  0.14486587  0.21637049    -0.71100
O43         O  0.58271741  0.14720586  0.20935173    -0.71100
O44         O  0.64089141  0.10289090  0.29817812    -0.71300
V45         V  0.57632040  0.05200793  0.22650600     1.35200
V46         V  0.61169239  0.12327909  0.25312885     1.35200
C47         C  0.63448274  0.05934943  0.29976325     0.78200
C48         C  0.55244629  0.11634576  0.18135150     0.78200
C49         C  0.67161251  0.11276987  0.19223978     0.78100
C50         C  0.51645100  0.06145108  0.28770529     0.78100
O51         O  0.03506467  0.60281823  0.21146118    -0.71100
O52         O  0.08041264  0.53465188  0.28796262    -0.71300
O53         O  0.08019003  0.62172110  0.29064518    -0.71100
O54         O  0.03553157  0.51405172  0.20777542    -0.71200
O55         O  0.10837263  0.55504818  0.17719956    -0.71100
O56         O  0.15318030  0.66140339  0.26001988    -0.71100
O57         O  0.15318596  0.57178592  0.25693762    -0.71100
O58         O  0.10797298  0.64055995  0.18068528    -0.71300
V59         V  0.05927067  0.56893485  0.24901198     1.35200
V60         V  0.12926680  0.60638638  0.21942316     1.35200
C61         C  0.06605870  0.63705795  0.18573516     0.80000
C62         C  0.12219405  0.53781804  0.28304596     0.78200
C63         C  0.12193863  0.66195416  0.28614415     0.78100
C64         C  0.06609748  0.51538507  0.17948111     0.78100
C65         C  0.74387555  0.07394009  0.50785907     0.03800
C66         C  0.74582535  0.03370218  0.49205368    -0.12300
C67         C  0.79134743  0.03650987  0.48391813     0.01300
C68         C  0.83664270  0.08203930  0.49446391    -0.10800
C69         C  0.83485472  0.12534369  0.00860450     0.03800
C70         C  0.78801025  0.12053054  0.01150077    -0.10300
H71         H  0.71080968  0.00093719  0.48280034     0.09400
H72         H  0.87231554  0.08551768  0.48855404     0.07000
H73         H  0.78447577  0.15139664  0.02273992     0.06800
C74         C  0.42803517  0.08370371  0.49588556     0.03800
C75         C  0.42592026  0.12668037  0.00893156    -0.12300
C76         C  0.38252705  0.12889126  0.00534567     0.01300
C77         C  0.33810254  0.08459487  0.49008170    -0.10800
C78         C  0.34043267  0.04304984  0.47328797     0.03800
C79         C  0.38648774  0.04554574  0.47437110    -0.10300
H80         H  0.45670056  0.15459772  0.02826530     0.09400
H81         H  0.30398623  0.08531426  0.48754008     0.07000
H82         H  0.39005373  0.01688320  0.45796453     0.06800
C83         C  0.08174330  0.42512519  0.96770782     0.03800
C84         C  0.13001071  0.42769181  0.47126561    -0.12300
C85         C  0.13386035  0.38495775  0.47456701     0.01300
C86         C  0.08893532  0.34013842  0.98638670    -0.10800
C87         C  0.04237464  0.33783390  0.99055730     0.03800
C88         C  0.03934156  0.37879724  0.97505794    -0.10300
H89         H  0.16322780  0.46367169  0.46577814     0.09400
H90         H  0.09180968  0.30775602  0.99416455     0.07000
H91         H  0.00345877  0.37551544  0.97155074     0.06800
C92         C  0.07931274  0.74183715  0.95911750     0.03800
C93         C  0.03898960  0.74090297  0.97905151    -0.12300
C94         C  0.03946583  0.78506229  0.98862058     0.01300
C95         C  0.08159850  0.83012921  0.47590508    -0.10800
C96         C  0.12258445  0.83019702  0.45509623     0.03800
C97         C  0.11806929  0.78460498  0.44495403    -0.10300
H98         H  0.00809236  0.70499384  0.98958959     0.09400
H99         H  0.08446416  0.86498275  0.48455733     0.07000
H100        H  0.14793485  0.78375741  0.42780317     0.06800
C101        C  0.10763655  0.43359458  0.13426886     0.03800
C102        C  0.10325361  0.47518284  0.13935330    -0.12300
C103        C  0.05882680  0.47076230  0.15442330     0.01300
C104        C  0.01394154  0.42323340  0.15059964    -0.10800
C105        C  0.01685833  0.38106328  0.13719958     0.03800
C106        C  0.06420672  0.38665970  0.13467221    -0.10300
H107        H  0.13603359  0.51156160  0.13488871     0.09400
H108        H  0.97827875  0.41924386  0.15775179     0.07000
H109        H  0.06712412  0.35398709  0.13029641     0.06800
C110        C  0.42024370  0.42159628  0.15382698     0.03800
C111        C  0.42139758  0.38004721  0.14041478    -0.12300
C112        C  0.46525588  0.37828340  0.14196306     0.01300
C113        C  0.51018018  0.42117560  0.15747346    -0.10800
C114        C  0.50906593  0.46440037  0.17107552     0.03800
C115        C  0.46357613  0.46300153  0.16909776    -0.10300
H116        H  0.38776989  0.34937408  0.12617015     0.09400
H117        H  0.54459465  0.42094399  0.15884896     0.07000
H118        H  0.46131443  0.49463569  0.18017956     0.06800
O119        O  0.43004912  0.21651434  0.01533177    -0.71100
O120        O  0.48498592  0.33021583  0.09193429    -0.71300
O121        O  0.48845537  0.24309229  0.08826568    -0.71100
O122        O  0.42727034  0.30173720  0.01874598    -0.71200
O123        O  0.36093568  0.26527408  0.05982805    -0.71100
O124        O  0.42168651  0.20519719  0.12867325    -0.71100
O125        O  0.41851690  0.29057153  0.13255604    -0.71100
O126        O  0.36323616  0.17726008  0.05562672    -0.71300
V127        V  0.45633675  0.27207696  0.05436600     1.35200
V128        V  0.39241762  0.23529101  0.09340542     1.35200
C129        C  0.38946068  0.17635356  0.02409007     0.78200
C130        C  0.45860935  0.33093116  0.12345515     0.78200
C131        C  0.46337661  0.21051283  0.11801515     0.78100
C132        C  0.38634191  0.29763741  0.02994391     0.78100
C133        C  0.77966567  0.76581114  0.19917287     0.03800
C134        C  0.81839227  0.76638071  0.17656611    -0.12300
C135        C  0.81394818  0.72247813  0.15974010     0.01300
C136        C  0.76769555  0.67631474  0.16669375    -0.10800
C137        C  0.72867698  0.67604528  0.19168571     0.03800
C138        C  0.73710944  0.72085730  0.20926009    -0.10300
H139        H  0.85066676  0.80247680  0.16872405     0.09400
H140        H  0.76191828  0.64213807  0.15243805     0.07000
H141        H  0.70803365  0.72170521  0.22790755     0.06800
C142        C  0.76801757  0.07867594  0.17205971     0.03800
C143        C  0.80901685  0.12226413  0.15735262    -0.12300
C144        C  0.80720521  0.16551183  0.14899951     0.01300
C145        C  0.76158315  0.16427346  0.15771998    -0.10800
C146        C  0.71934171  0.11917837  0.17457480     0.03800
C147        C  0.72375203  0.07690513  0.18060680    -0.10300
H148        H  0.84240492  0.12114977  0.15070786     0.09400
H149        H  0.75919561  0.19728723  0.15212156     0.07000
H150        H  0.69299814  0.04230159  0.19380807     0.06800
O151        O  0.99798477  0.81079304  0.04131184    -0.71100
O152        O  0.89557768  0.77351297  0.12861573    -0.71300
O153        O  0.98259545  0.77432499  0.12523500    -0.71100
O154        O  0.90967284  0.81035005  0.04484967    -0.71200
O155        O  0.87048278  0.73414795  0.02156983    -0.71100
O156        O  0.94378410  0.69826359  0.10164333    -0.71100
O157        O  0.85488465  0.69738340  0.10541956    -0.71100
O158        O  0.95711513  0.73470771  0.01788946    -0.71300
V159        V  0.94560674  0.79067959  0.08469979     1.35200
V160        V  0.90734077  0.71764880  0.06200318     1.35200
C161        C  0.99611140  0.77775500  0.01602183     0.78200
C162        C  0.85664612  0.73037431  0.13070442     0.78200
C163        C  0.97846289  0.73170995  0.12511033     0.78100
C164        C  0.87535090  0.77710811  0.02104319     0.78100
O165        O  0.95839510  0.30191308  0.01443479    -0.71100
O166        O  0.85230662  0.23671870  0.09849661    -0.71300
O167        O  0.94128563  0.32797325  0.09421627    -0.71100
O168        O  0.87232729  0.21296143  0.01938073    -0.71200
O169        O  0.91026979  0.17868225  0.05110766    -0.71100
O170        O  0.97984891  0.29386324  0.12494202    -0.71100
O171        O  0.89312679  0.20553030  0.13017337    -0.71100
O172        O  0.99880043  0.26971824  0.04497758    -0.71300
V173        V  0.90696485  0.26935412  0.05720434     1.35200
V174        V  0.94472058  0.23763490  0.08726754     1.35200
C175        C  0.99769592  0.29965632  0.01644449     0.78200
C176        C  0.85304455  0.20634332  0.12657177     0.78200
C177        C  0.97537554  0.33182271  0.12033666     0.78100
C178        C  0.87635165  0.17471377  0.02492014     0.78100
C179        C  0.42181944  0.43052020  0.01533491     0.03800
C180        C  0.42129348  0.38676504  0.02458851    -0.12300
C181        C  0.37853276  0.33995197  0.01773238     0.01300
C182        C  0.33511961  0.33811809  0.99895165    -0.10800
C183        C  0.33876683  0.38241554  0.48835782     0.03800
C184        C  0.38231791  0.42721910  0.49916448    -0.10300
H185        H  0.45577528  0.38951301  0.03559830     0.09400
H186        H  0.30294198  0.30271327  0.98996466     0.07000
H187        H  0.38483128  0.46277235  0.49381516     0.06800
C188        C  0.75011293  0.74047063  0.97313159     0.03800
C189        C  0.79056125  0.74004031  0.99209244    -0.12300
C190        C  0.83687888  0.78405073  0.99711977     0.01300
C191        C  0.84110707  0.83050804  0.98405953    -0.10800
C192        C  0.79909434  0.83088504  0.46171111     0.03800
C193        C  0.75632580  0.78512035  0.45268177    -0.10300
H194        H  0.78470209  0.70493882  0.00544837     0.09400
H195        H  0.87516608  0.86546312  0.99021706     0.07000
H196        H  0.72516230  0.78365352  0.43501762     0.06800
C197        C  0.08161301  0.75322653  0.31096419     0.03800
C198        C  0.12472580  0.79524742  0.32521204    -0.12300
C199        C  0.17026493  0.79699799  0.32859385     0.01300
C200        C  0.17178551  0.75337364  0.31738850    -0.10800
C201        C  0.12717930  0.70958234  0.30271137     0.03800
C202        C  0.08321830  0.71118716  0.29937555    -0.10300
H203        H  0.12163462  0.82589645  0.33760102     0.09400
H204        H  0.20627076  0.75339273  0.32025736     0.07000
H205        H  0.04912096  0.67904217  0.28752666     0.06800
C206        C  0.76017514  0.74657899  0.34054288     0.03800
C207        C  0.76364776  0.79319110  0.33641462    -0.12300
C208        C  0.72076275  0.79692352  0.33441408     0.01300
C209        C  0.67455764  0.75291264  0.32367648    -0.10800
C210        C  0.67206361  0.70596574  0.32298622     0.03800
C211        C  0.71298455  0.70419010  0.33986785    -0.10300
H212        H  0.79963619  0.82705384  0.33852750     0.09400
H213        H  0.64183735  0.75513030  0.31625173     0.07000
H214        H  0.70858528  0.66869707  0.34876321     0.06800
O215        O  0.81973316  0.90771892  0.42235572    -0.71100
O216        O  0.76252244  0.97049720  0.35283224    -0.71300
O217        O  0.81459679  0.99407103  0.42940919    -0.71100
O218        O  0.76786329  0.88553945  0.34633118    -0.71200
O219        O  0.69822684  0.84376475  0.38233344    -0.71100
O220        O  0.74507361  0.95064812  0.46517831    -0.71100
O221        O  0.69304070  0.92934267  0.38923488    -0.71100
O222        O  0.75020747  0.86793485  0.45888830    -0.71300
V223        V  0.78984906  0.93876596  0.38828648     1.35200
V224        V  0.72308387  0.89873729  0.42306232     1.35200
C225        C  0.79222448  0.87345848  0.44990628     0.78200
C226        C  0.72027494  0.96443901  0.36237120     0.78200
C227        C  0.78556894  0.99179107  0.45993419     0.78100
C228        C  0.72718966  0.84455996  0.35260911     0.78100
C229        C  0.42858957  0.09772522  0.33274718     0.03800
C230        C  0.38975129  0.05403216  0.34994314    -0.12300
C231        C  0.38571938  0.00808301  0.34259096     0.01300
C232        C  0.42681255  0.00728089  0.32288662    -0.10800
C233        C  0.46975927  0.05354955  0.30918126     0.03800
C234        C  0.46811496  0.09728274  0.31268506    -0.10300
H235        H  0.36127400  0.05569970  0.36863976     0.09400
H236        H  0.42523578  0.97227752  0.31800139     0.07000
H237        H  0.49775008  0.13189193  0.29841450     0.06800
C238        C  0.41451115  0.40546468  0.30100956     0.03800
C239        C  0.37311739  0.40539050  0.31699404    -0.12300
C240        C  0.37405983  0.44991628  0.32589451     0.01300
C241        C  0.41855034  0.49635261  0.31507957    -0.10800
C242        C  0.46012909  0.49581990  0.29602803     0.03800
C243        C  0.45616541  0.44986880  0.28845046    -0.10300
H244        H  0.34102585  0.36958616  0.32577099     0.09400
H245        H  0.42142598  0.53141670  0.32286126     0.07000
H246        H  0.48765272  0.44850062  0.27542832     0.06800
O247        O  0.20401079  0.40097894  0.35092789    -0.71100
O248        O  0.27065245  0.35871928  0.43387977    -0.71300
O249        O  0.18252635  0.35944280  0.43260959    -0.71100
O250        O  0.29007670  0.40000188  0.35100866    -0.71200
O251        O  0.33059909  0.47424952  0.37847847    -0.71100
O252        O  0.22096289  0.43443522  0.45882580    -0.71100
O253        O  0.30657430  0.43287026  0.46143511    -0.71100
O254        O  0.24274539  0.47589943  0.37723151    -0.71300
V255        V  0.23772501  0.38130621  0.39251762     1.35200
V256        V  0.27469857  0.45285843  0.41856055     1.35200
C257        C  0.20865245  0.44387035  0.35239964     0.78200
C258        C  0.30195875  0.39002667  0.46124948     0.78200
C259        C  0.18159662  0.39170553  0.45691393     0.78100
C260        C  0.32960637  0.44256422  0.35181641     0.78100
O261        O  0.29855288  0.96937328  0.34627302    -0.71100
O262        O  0.17964685  0.90698602  0.41599485    -0.71300
O263        O  0.27162543  0.99557246  0.42098075    -0.71100
O264        O  0.20980500  0.88397418  0.34197909    -0.71200
O265        O  0.23917041  0.84497637  0.38011480    -0.71100
O266        O  0.29960200  0.95585717  0.45993063    -0.71100
O267        O  0.21032169  0.86936340  0.45445729    -0.71100
O268        O  0.33042827  0.93355314  0.38574301    -0.71300
V269        V  0.24054890  0.93828484  0.38212803     1.35200
V270        V  0.26926525  0.90169387  0.41937333     1.35200
C271        C  0.33604396  0.96567873  0.35627855     0.78200
C272        C  0.17304095  0.87342499  0.44421499     0.78200
C273        C  0.29969382  0.99602647  0.45221953     0.78100
C274        C  0.21060036  0.84421853  0.34928730     0.78100
O275        O  0.60858078  0.66048233  0.26580304    -0.71100
O276        O  0.55147950  0.55203955  0.18309451    -0.71300
O277        O  0.51783470  0.57214490  0.25633819    -0.71100
O278        O  0.64085399  0.63893475  0.19142132    -0.71200
O279        O  0.66944812  0.59934309  0.22973135    -0.71100
O280        O  0.54794737  0.53509614  0.29641762    -0.71100
O281        O  0.57788219  0.51129191  0.22259140    -0.71100
O282        O  0.63671046  0.62041108  0.30385841    -0.71300
V283        V  0.58037071  0.60519276  0.22481159     1.35200
V284        V  0.60754423  0.56741466  0.26233998     1.35200
C285        C  0.63521928  0.65997385  0.29793304     0.78200
C286        C  0.55051417  0.51145627  0.19108382     0.78200
C287        C  0.51076665  0.53885647  0.28508862     0.78100
C288        C  0.67729599  0.63346450  0.20156090     0.78100
C289        C  0.39149029  0.19394882  0.31409672    -0.13700
C290        C  0.43719026  0.23720674  0.32137542     0.16700
C291        C  0.47796887  0.23469070  0.33764107     0.03000
C292        C  0.47308147  0.18831720  0.34413734    -0.12200
C293        C  0.42815411  0.14445085  0.33408021    -0.03200
C294        C  0.38612187  0.14743487  0.32066238     0.02300
C295        C  0.43874295  0.28405610  0.31602521     0.09100
N296        N  0.52462439  0.27865887  0.34671494     0.65500
H297        H  0.50514597  0.18661596  0.35589282     0.18400
N298        N  0.33792340  0.10452428  0.31335302     0.75900
H299        H  0.35950689  0.19644034  0.30340918     0.09900
C300        C  0.44274707  0.30540039  0.27340462     0.03600
C301        C  0.43313264  0.34422640  0.26823392    -0.05100
C302        C  0.41863827  0.36083091  0.30538895    -0.23500
C303        C  0.41496670  0.33876821  0.34805015     0.12800
C304        C  0.42545012  0.30097611  0.35291008    -0.12700
N305        N  0.45468800  0.28640367  0.23537806     0.64500
H306        H  0.43672543  0.36126648  0.23561671     0.12400
N307        N  0.40164707  0.35459507  0.38727871     0.61100
H308        H  0.42114567  0.28321901  0.38546516     0.08500
O309        O  0.32096716  0.09527747  0.27390123    -0.40300
O310        O  0.30731561  0.08872405  0.34533735    -0.39500
O311        O  0.53596720  0.29278996  0.38670424    -0.39500
O312        O  0.55853187  0.29475424  0.31763946    -0.37200
O313        O  0.35621287  0.33352660  0.39741109    -0.38100
O314        O  0.43369790  0.37429467  0.41802479    -0.34300
O315        O  0.42035742  0.24844968  0.21615031    -0.35700
O316        O  0.49926942  0.29825983  0.22927920    -0.40000
C317        C  0.98221573  0.78817246  0.31437627    -0.13700
C318        C  0.94532716  0.74798251  0.33923392     0.16700
C319        C  0.95182485  0.70764956  0.35086258     0.03000
C320        C  0.99561520  0.70948073  0.33929799    -0.12200
C321        C  0.03343806  0.75054520  0.31601460    -0.03200
C322        C  0.02605982  0.78991313  0.30264474     0.02300
C323        C  0.89746925  0.74529725  0.34598828     0.09100
N324        N  0.91440309  0.66440774  0.37419606     0.65500
H325        H  0.00046741  0.67876489  0.34958602     0.18400
N326        N  0.06134023  0.83065477  0.27539623     0.75900
H327        H  0.97617571  0.81765281  0.30239328     0.09900
C328        C  0.89384957  0.78394507  0.36566103     0.03600
C329        C  0.84806905  0.78147650  0.36624123    -0.05100
C330        C  0.80560666  0.74243979  0.34543240    -0.23500
C331        C  0.80955006  0.70269186  0.32711295     0.12800
C332        C  0.85515670  0.70517183  0.32749742    -0.12700
N333        N  0.93647632  0.82693936  0.38362685     0.64500
H334        H  0.84648045  0.81137125  0.38250421     0.12400
N335        N  0.76935763  0.66020264  0.30590485     0.61100
H336        H  0.85789663  0.67605095  0.31083961     0.08500
O337        O  0.08781003  0.87286051  0.29295674    -0.40300
O338        O  0.05512192  0.82829468  0.23345122    -0.39500
O339        O  0.88972800  0.62412779  0.35313480    -0.39500
O340        O  0.91637421  0.66276924  0.41640608    -0.37200
O341        O  0.77336606  0.65497558  0.26469695    -0.38100
O342        O  0.74427099  0.62120427  0.32940676    -0.34300
O343        O  0.95671211  0.86692393  0.36080840    -0.35700
O344        O  0.94407592  0.82900596  0.42536277    -0.40000
C345        C  0.61533241  0.65164321  0.00124577    -0.13700
C346        C  0.61115340  0.60667892  0.98983971     0.16700
C347        C  0.65397198  0.60590717  0.46193817     0.03000
C348        C  0.69767305  0.65118688  0.45489730    -0.12200
C349        C  0.70047009  0.69557314  0.97503956    -0.03200
C350        C  0.65934936  0.69632709  0.99349296     0.02300
C351        C  0.56374070  0.56142073  0.99733922     0.09100
N352        N  0.65036442  0.56110128  0.44680238     0.65500
H353        H  0.72894596  0.65165652  0.43908404     0.18400
N354        N  0.66131208  0.74155882  0.00490978     0.75900
H355        H  0.58399892  0.65197906  0.01605482     0.09900
C356        C  0.55187501  0.53646869  0.03893763     0.03600
C357        C  0.50480905  0.49409983  0.04520572    -0.05100
C358        C  0.46962476  0.47751060  0.01025825    -0.23500
C359        C  0.48617706  0.50120965  0.46344458     0.12800
C360        C  0.53303309  0.54261354  0.45710628    -0.12700
N361        N  0.58736473  0.55419897  0.07472704     0.64500
H362        H  0.49582345  0.47419798  0.07665221     0.12400
N363        N  0.45276108  0.48512696  0.42626224     0.61100
H364        H  0.54224712  0.56240452  0.42516915     0.08500
O365        O  0.64395964  0.75996982  0.97739833    -0.40300
O366        O  0.66433058  0.75283083  0.04564096    -0.39500
O367        O  0.63992493  0.54921031  0.40622327    -0.39500
O368        O  0.66888656  0.54071010  0.47040176    -0.37200
O369        O  0.42636405  0.50450969  0.42013620    -0.38100
O370        O  0.46321318  0.46801923  0.39297394    -0.34300
O371        O  0.62075984  0.54301079  0.07565260    -0.35700
O372        O  0.59317659  0.59043021  0.09752619    -0.40000
C373        C  0.79009189  0.98195898  0.22650347    -0.13700
C374        C  0.78552013  0.95271255  0.18938990     0.16700
C375        C  0.77792637  0.96753130  0.14620211     0.03000
C376        C  0.77049633  0.00764288  0.14156490    -0.12200
C377        C  0.77256108  0.03476260  0.17882658    -0.03200
C378        C  0.78502817  0.02372406  0.22101853     0.02300
C379        C  0.78337207  0.90446698  0.19625005     0.09100
N380        N  0.78000757  0.94394554  0.10638094     0.65500
H381        H  0.76431749  0.01851189  0.10846168     0.18400
N382        N  0.79364487  0.05572897  0.25784943     0.75900
H383        H  0.79622707  0.97174552  0.25979968     0.09900
C384        C  0.81972066  0.89973302  0.22092589     0.03600
C385        C  0.81668400  0.85350124  0.22379821    -0.05100
C386        C  0.77846128  0.81208714  0.20200306    -0.23500
C387        C  0.74135806  0.81627980  0.17865649     0.12800
C388        C  0.74325152  0.86174640  0.17720305    -0.12700
N389        N  0.86171464  0.94172958  0.24070778     0.64500
H390        H  0.84541292  0.85037221  0.24157664     0.12400
N391        N  0.70439455  0.77588252  0.15265204     0.61100
H392        H  0.71415794  0.86411441  0.15939360     0.08500
O393        O  0.75868652  0.06155343  0.27018946    -0.40300
O394        O  0.83780591  0.08889128  0.26716728    -0.39500
O395        O  0.74038547  0.91734005  0.08460189    -0.39500
O396        O  0.82107149  0.96235880  0.08625868    -0.37200
O397        O  0.71767382  0.76052014  0.11986857    -0.38100
O398        O  0.66052479  0.75001016  0.16724331    -0.34300
O399        O  0.86322515  0.94597428  0.28276967    -0.35700
O400        O  0.90189822  0.96395897  0.21901210    -0.40000
C401        C  0.28594702  0.38973216  0.15489138    -0.13700
C402        C  0.28993319  0.43082769  0.13147659     0.16700
C403        C  0.33688936  0.46931978  0.11675040     0.03000
C404        C  0.37861504  0.46520204  0.12421463    -0.12200
C405        C  0.37477698  0.42400159  0.14749156    -0.03200
C406        C  0.32785956  0.38602121  0.16323592     0.02300
C407        C  0.24549663  0.43506524  0.12687946     0.09100
N408        N  0.34293525  0.51306871  0.09475300     0.65500
H409        H  0.41441925  0.49453332  0.11162655     0.18400
N410        N  0.32238892  0.34485206  0.18955992     0.75900
H411        H  0.25018410  0.36103594  0.16809979     0.09900
C412        C  0.20293131  0.39952805  0.10359922     0.03600
C413        C  0.16038266  0.40302922  0.10302641    -0.05100
C414        C  0.15723904  0.43837595  0.12904897    -0.23500
C415        C  0.20063781  0.47438169  0.15224677     0.12800
C416        C  0.24417875  0.47267835  0.15013637    -0.12700
N417        N  0.20092825  0.35754839  0.08320693     0.64500
H418        H  0.12878199  0.37609329  0.08340892     0.12400
N419        N  0.20083987  0.51050536  0.18101188     0.61100
H420        H  0.27646896  0.49922598  0.16939779     0.08500
O421        O  0.30453947  0.30285125  0.17145866    -0.40300
O422        O  0.32121193  0.34683354  0.23167809    -0.39500
O423        O  0.35932079  0.55256350  0.11687428    -0.39500
O424        O  0.34464200  0.51577338  0.05251440    -0.37200
O425        O  0.19517104  0.50116670  0.22248795    -0.38100
O426        O  0.22195198  0.55538415  0.16781479    -0.34300
O427        O  0.17797929  0.31571134  0.10302529    -0.35700
O428        O  0.20956799  0.35919172  0.04186757    -0.40000
C429        C  0.11856431  0.64544776  0.46478789    -0.13700
C430        C  0.07822274  0.60441525  0.44451669     0.16700
C431        C  0.03706962  0.60769532  0.42954716     0.03000
C432        C  0.03769132  0.65227656  0.43410447    -0.12200
C433        C  0.08012605  0.69567017  0.95338190    -0.03200
C434        C  0.12105564  0.69143960  0.96772524     0.02300
C435        C  0.07691051  0.55682716  0.44604668     0.09100
N436        N  0.99382056  0.56583098  0.41097245     0.65500
H437        H  0.00572108  0.65435778  0.42286497     0.18400
N438        N  0.16202330  0.73008616  0.99197754     0.75900
H439        H  0.15028705  0.64318189  0.97497318     0.09900
C440        C  0.11481269  0.55146228  0.42709329     0.03600
C441        C  0.11419871  0.50687436  0.43314965    -0.05100
C442        C  0.07811527  0.47010996  0.95866498    -0.23500
C443        C  0.04225893  0.47784124  0.97970575     0.12800
C444        C  0.04093747  0.52083776  0.97002234    -0.12700
N445        N  0.15689028  0.59246552  0.40573362     0.64500
H446        H  0.14218462  0.50278773  0.41606273     0.12400
N447        N  0.01046347  0.44569990  0.01450500     0.61100
H448        H  0.01438046  0.52691843  0.98754771     0.08500
O449        O  0.20295729  0.75660309  0.97208401    -0.40300
O450        O  0.16196875  0.72701871  0.03421575    -0.39500
O451        O  0.95574630  0.54159332  0.43521753    -0.39500
O452        O  0.98896427  0.56248401  0.36892394    -0.37200
O453        O  0.02546444  0.45559800  0.05446322    -0.38100
O454        O  0.96429960  0.41928395  0.00706798    -0.34300
O455        O  0.19756924  0.61518885  0.42692126    -0.35700
O456        O  0.15702059  0.59769681  0.36376796    -0.40000
C457        C  0.56473220  0.12193645  0.50246010    -0.13700
C458        C  0.56095472  0.07535037  0.50469670     0.16700
C459        C  0.51329307  0.03192001  0.50740416     0.03000
C460        C  0.47113739  0.03605446  0.50581908    -0.12200
C461        C  0.47471500  0.08245564  0.49993487    -0.03200
C462        C  0.52266169  0.12603910  0.49820702     0.02300
C463        C  0.60719818  0.07346065  0.50413425     0.09100
N464        N  0.50652273  0.98311903  0.51018751     0.65500
H465        H  0.43506973  0.00199718  0.50837612     0.18400
N466        N  0.53004410  0.17435180  0.48850363     0.75900
H467        H  0.60103006  0.15588631  0.50251284     0.09900
C468        C  0.64594713  0.10274858  0.47337866     0.03600
C469        C  0.69033887  0.10274624  0.47603681    -0.05100
C470        C  0.69650125  0.07276386  0.50757616    -0.23500
C471        C  0.65794453  0.04424834  0.02917524     0.12800
C472        C  0.61538346  0.04779339  0.02936898    -0.12700
N473        N  0.64074858  0.13210161  0.43881513     0.64500
H474        H  0.71999824  0.12556520  0.45252818     0.12400
N475        N  0.66076525  0.00946647  0.05887801     0.61100
H476        H  0.58657764  0.02558309  0.05363570     0.08500
O477        O  0.54437800  0.20573808  0.51958557    -0.40300
O478        O  0.53786523  0.18996890  0.44841326    -0.39500
O479        O  0.49281573  0.95935596  0.54695056    -0.39500
O480        O  0.49943951  0.95922735  0.47452460    -0.37200
O481        O  0.67230377  0.02098738  0.09932809    -0.38100
O482        O  0.63883128  0.96411746  0.04827461    -0.34300
O483        O  0.66785141  0.17901631  0.43976535    -0.35700
O484        O  0.61866235  0.11150673  0.40287486    -0.40000
C485        C  0.85448304  0.22127568  0.31917206    -0.13700
C486        C  0.89386558  0.22635391  0.34513134     0.16700
C487        C  0.88570587  0.19194982  0.37958294     0.03000
C488        C  0.83762818  0.15238555  0.38742416    -0.12200
C489        C  0.79770527  0.14526226  0.36007159    -0.03200
C490        C  0.80670411  0.18130406  0.32597875     0.02300
C491        C  0.94204041  0.27103945  0.33816915     0.09100
N492        N  0.92585061  0.19633611  0.40631224     0.65500
H493        H  0.83183196  0.12612191  0.41425543     0.18400
N494        N  0.76936861  0.17628874  0.29512953     0.75900
H495        H  0.86111460  0.24838545  0.29273198     0.09900
C496        C  0.97841391  0.27127825  0.31103044     0.03600
C497        C  0.02313054  0.31604418  0.30386873    -0.05100
C498        C  0.03016839  0.36076608  0.32122351    -0.23500
C499        C  0.99112730  0.36046056  0.34481156     0.12800
C500        C  0.94825154  0.31539710  0.35426536    -0.12700
N501        N  0.96872573  0.22731643  0.28821548     0.64500
H502        H  0.05200436  0.31621662  0.28404913     0.12400
N503        N  0.99346816  0.40515299  0.35868795     0.61100
H504        H  0.91860953  0.31513344  0.37298322     0.08500
O505        O  0.75009780  0.20278321  0.30017917    -0.40300
O506        O  0.76902443  0.16013133  0.25674315    -0.39500
O507        O  0.94129088  0.22556914  0.43903355    -0.39500
O508        O  0.93834631  0.16402111  0.40319947    -0.37200
O509        O  0.97651797  0.42514537  0.33255446    -0.38100
O510        O  0.99487632  0.41327281  0.40001705    -0.34300
O511        O  0.97501985  0.19513121  0.30835252    -0.35700
O512        O  0.94537689  0.21651031  0.25141543    -0.40000
C513        C  0.22340454  0.87671352  0.10832396    -0.13700
C514        C  0.25769404  0.88799957  0.14298680     0.16700
C515        C  0.24221338  0.86224493  0.18437702     0.03000
C516        C  0.19239044  0.82593321  0.19044265    -0.12200
C517        C  0.15790562  0.81450425  0.15557044    -0.03200
C518        C  0.17375412  0.84040938  0.11435944     0.02300
C519        C  0.30469798  0.93498254  0.13911260     0.09100
N520        N  0.27670101  0.87231445  0.22021887     0.65500
H521        H  0.18069273  0.80562901  0.22216031     0.18400
N522        N  0.14023117  0.82920590  0.07778388     0.75900
H523        H  0.23487497  0.89770107  0.07691611     0.09900
C524        C  0.34044862  0.94394544  0.10626733     0.03600
C525        C  0.38105407  0.99202185  0.10051657    -0.05100
C526        C  0.38582739  0.03098728  0.12651736    -0.23500
C527        C  0.34956827  0.02187073  0.15873415     0.12800
C528        C  0.30936132  0.97413449  0.16458815    -0.12700
N529        N  0.33690179  0.90472349  0.07967224     0.64500
H530        H  0.40983994  0.99881866  0.07654580     0.12400
N531        N  0.35496509  0.05992081  0.18801581     0.61100
H532        H  0.28110063  0.96764403  0.18904033     0.08500
O533        O  0.13800815  0.79995006  0.04814344    -0.40300
O534        O  0.12338500  0.85749436  0.06940145    -0.39500
O535        O  0.27762770  0.89788939  0.25286208    -0.39500
O536        O  0.29594316  0.84556190  0.22474051    -0.37200
O537        O  0.33094001  0.08154488  0.17995397    -0.38100
O538        O  0.37370649  0.06318211  0.22639224    -0.34300
O539        O  0.32446444  0.90231331  0.03897880    -0.35700
O540        O  0.35971404  0.88311067  0.09247666    -0.40000
C541        C  0.10440213  0.76839143  0.65968861     0.03800
C542        C  0.10219171  0.72397022  0.66905695    -0.12300
C543        C  0.05748273  0.67825085  0.66856177     0.01300
C544        C  0.01287393  0.67780579  0.65626548    -0.10800
C545        C  0.01518658  0.72406611  0.64599356     0.03800
C546        C  0.06123255  0.76871559  0.65011857    -0.10300
H547        H  0.13690567  0.72566359  0.67699515     0.09400
H548        H  0.97791641  0.64281094  0.65391237     0.07000
H549        H  0.06469353  0.80442821  0.64276502     0.06800
C550        C  0.43013386  0.07730692  0.63391715     0.03800
C551        C  0.47360338  0.07882353  0.64560889    -0.12300
C552        C  0.51659954  0.12361671  0.65707262     0.01300
C553        C  0.51630786  0.16936036  0.65072283    -0.10800
C554        C  0.47165101  0.16738655  0.63504765     0.03800
C555        C  0.42928473  0.12066549  0.62816252    -0.10300
H556        H  0.47146909  0.04333467  0.65059034     0.09400
H557        H  0.54896131  0.20480323  0.65877156     0.07000
H558        H  0.39451887  0.11738723  0.61729625     0.06800
C559        C  0.08035098  0.40539064  0.80766684     0.03800
C560        C  0.08396484  0.44908926  0.79231577    -0.12300
C561        C  0.12779093  0.49544018  0.79700347     0.01300
C562        C  0.17117062  0.49655732  0.81491761    -0.10800
C563        C  0.16856642  0.45050940  0.82709484     0.03800
C564        C  0.12247044  0.40601097  0.82333410    -0.10300
H565        H  0.05123717  0.44666686  0.77702633     0.09400
H566        H  0.20552820  0.53177965  0.81914786     0.07000
H567        H  0.11796112  0.37110500  0.83573782     0.06800
C568        C  0.75257915  0.09744718  0.86401093     0.03800
C569        C  0.70759420  0.09354752  0.85276974    -0.12300
C570        C  0.66946464  0.05058690  0.83199102     0.01300
C571        C  0.67153319  0.00590667  0.83481805    -0.10800
C572        C  0.71395553  0.00752126  0.85495391     0.03800
C573        C  0.75404334  0.05370428  0.86807886    -0.10300
H574        H  0.70524207  0.12673937  0.85460655     0.09400
H575        H  0.64232412  0.97173405  0.82022272     0.07000
H576        H  0.78829015  0.05579773  0.87847555     0.06800
O577        O  0.60697451  0.02868694  0.77256818    -0.71100
O578        O  0.55043555  0.07354047  0.68172294    -0.71300
O579        O  0.63561156  0.07124109  0.69102282    -0.71100
O580        O  0.51956262  0.02952697  0.76250217    -0.71200
O581        O  0.55692155  0.10317534  0.79150636    -0.71100
O582        O  0.67191830  0.14576706  0.71817162    -0.71100
O583        O  0.58413717  0.14690873  0.71080035    -0.71100
O584        O  0.64261210  0.10313185  0.79956257    -0.71300
V585        V  0.57886698  0.05226996  0.72727620     1.35200
V586        V  0.61328186  0.12325507  0.75446215     1.35200
C587        C  0.63665839  0.05979578  0.80094633     0.78200
C588        C  0.55401338  0.11602152  0.68277036     0.78200
C589        C  0.67451704  0.11402578  0.69427067     0.78100
C590        C  0.51768514  0.06050807  0.78786383     0.78100
O591        O  0.03298873  0.60149638  0.71044396    -0.71100
O592        O  0.08032462  0.53458961  0.78649593    -0.71300
O593        O  0.07881796  0.62122117  0.78943235    -0.71100
O594        O  0.03505959  0.51344036  0.70673583    -0.71200
O595        O  0.10750918  0.55536907  0.67554377    -0.71100
O596        O  0.15162778  0.66148668  0.75850496    -0.71100
O597        O  0.15278184  0.57254525  0.75481564    -0.71100
O598        O  0.10567533  0.64003923  0.67928676    -0.71300
V599        V  0.05824946  0.56836768  0.74781980     1.35200
V600        V  0.12798142  0.60658609  0.71777383     1.35200
C601        C  0.06348776  0.63587113  0.68451919     0.80000
C602        C  0.12216377  0.53812098  0.78078729     0.78200
C603        C  0.12050059  0.66159721  0.78508622     0.78100
C604        C  0.06579438  0.51515868  0.67841215     0.78100
C605        C  0.74474022  0.07652532  0.00135363     0.03800
C606        C  0.74688569  0.03568690  0.98762998    -0.12300
C607        C  0.79252565  0.03779712  0.98242733     0.01300
C608        C  0.83755296  0.08330834  0.99365630    -0.10800
C609        C  0.83430480  0.12342194  0.51174544     0.03800
C610        C  0.78742574  0.11804219  0.51748435    -0.10300
H611        H  0.71214512  0.00286477  0.97792160     0.09400
H612        H  0.87329633  0.08621774  0.99011789     0.07000
H613        H  0.78425411  0.14869274  0.52995792     0.06800
C614        C  0.43025870  0.08903786  0.98995293     0.03800
C615        C  0.42414465  0.12145887  0.51521696    -0.12300
C616        C  0.38171596  0.12521131  0.51021602     0.01300
C617        C  0.33874625  0.08707995  0.98669303    -0.10800
C618        C  0.34180773  0.04600116  0.96972636     0.03800
C619        C  0.38849697  0.04993378  0.96941069    -0.10300
H620        H  0.45487597  0.14873220  0.53512234     0.09400
H621        H  0.30390488  0.08648656  0.98551246     0.07000
H622        H  0.39222768  0.02144440  0.95287355     0.06800
C623        C  0.08381936  0.42438900  0.47081826     0.03800
C624        C  0.12788331  0.42842785  0.96807236    -0.12300
C625        C  0.13185028  0.38587283  0.97233994     0.01300
C626        C  0.09068502  0.33888473  0.48759708    -0.10800
C627        C  0.04406449  0.33648181  0.49160936     0.03800
C628        C  0.04136107  0.37787027  0.47708084    -0.10300
H629        H  0.16102694  0.46429625  0.96197273     0.09400
H630        H  0.09338505  0.30626533  0.49462480     0.07000
H631        H  0.00553599  0.37460838  0.47349005     0.06800
C632        C  0.07737190  0.73979779  0.45826187     0.03800
C633        C  0.03706367  0.73912502  0.47792410    -0.12300
C634        C  0.03789336  0.78346064  0.48753939     0.01300
C635        C  0.08293501  0.83186881  0.97682183    -0.10800
C636        C  0.12396627  0.83218833  0.95581980     0.03800
C637        C  0.11975662  0.78673774  0.94573816    -0.10300
H638        H  0.00601286  0.70330324  0.48844523     0.09400
H639        H  0.08555895  0.86663027  0.98541307     0.07000
H640        H  0.14957082  0.78609457  0.92833839     0.06800
C641        C  0.10933706  0.43440707  0.63375455     0.03800
C642        C  0.10438451  0.47562173  0.63929853    -0.12300
C643        C  0.05956456  0.47053011  0.65419218     0.01300
C644        C  0.01512673  0.42262937  0.65065773    -0.10800
C645        C  0.01870933  0.38089638  0.63716561     0.03800
C646        C  0.06627360  0.38718313  0.63438276    -0.10300
H647        H  0.13689281  0.51222222  0.63497164     0.09400
H648        H  0.97923740  0.41812570  0.65776650     0.07000
H649        H  0.06957869  0.35474365  0.62998379     0.06800
C650        C  0.42160899  0.42249964  0.64890520     0.03800
C651        C  0.42278274  0.38047050  0.63734900    -0.12300
C652        C  0.46643612  0.37850844  0.64091726     0.01300
C653        C  0.51091481  0.42151501  0.65704036    -0.10800
C654        C  0.50962895  0.46520156  0.66881416     0.03800
C655        C  0.46450869  0.46418555  0.66420523    -0.10300
H656        H  0.38924828  0.34938428  0.62336574     0.09400
H657        H  0.54505253  0.42094413  0.66044270     0.07000
H658        H  0.46187043  0.49602674  0.67390003     0.06800
O659        O  0.43084730  0.21288684  0.51909124    -0.71100
O660        O  0.48610363  0.32889257  0.59287139    -0.71300
O661        O  0.48884547  0.24118905  0.59217665    -0.71100
O662        O  0.42879260  0.29856874  0.51938316    -0.71200
O663        O  0.36261190  0.26459884  0.56067188    -0.71100
O664        O  0.42155050  0.20443646  0.63196247    -0.71100
O665        O  0.41980751  0.29052671  0.63386278    -0.71100
O666        O  0.36339759  0.17567708  0.55872596    -0.71300
V667        V  0.45730270  0.26963746  0.55669150     1.35200
V668        V  0.39316266  0.23448478  0.59554601     1.35200
C669        C  0.38966781  0.17344132  0.52794921     0.78200
C670        C  0.45992411  0.33056701  0.62409765     0.78200
C671        C  0.46314277  0.20909056  0.62201861     0.78100
C672        C  0.38824882  0.29566626  0.53000217     0.78100
C673        C  0.77819707  0.76630877  0.69790960     0.03800
C674        C  0.81656014  0.76694428  0.67454270    -0.12300
C675        C  0.81167941  0.72308796  0.65706344     0.01300
C676        C  0.76534286  0.67702902  0.66386757    -0.10800
C677        C  0.72659706  0.67678817  0.68922296     0.03800
C678        C  0.73531252  0.72145183  0.70731626    -0.10300
H679        H  0.84910486  0.80299796  0.66714714     0.09400
H680        H  0.75939243  0.64286535  0.64943158     0.07000
H681        H  0.70656290  0.72220481  0.72661687     0.06800
C682        C  0.77267870  0.08148883  0.67845833     0.03800
C683        C  0.81335749  0.12485519  0.66311547    -0.12300
C684        C  0.81067311  0.16721638  0.65253684     0.01300
C685        C  0.76469185  0.16556498  0.66024718    -0.10800
C686        C  0.72292000  0.12085822  0.67816941     0.03800
C687        C  0.72813846  0.07936338  0.68630094    -0.10300
H688        H  0.84698755  0.12393013  0.65726837     0.09400
H689        H  0.76156458  0.19785913  0.65277205     0.07000
H690        H  0.69761320  0.04499907  0.70013067     0.06800
O691        O  0.99672595  0.80968962  0.54011511    -0.71100
O692        O  0.89348912  0.77365588  0.62625012    -0.71300
O693        O  0.97970457  0.77307621  0.62415403    -0.71100
O694        O  0.90909084  0.81053720  0.54252620    -0.71200
O695        O  0.86966468  0.73436406  0.51919662    -0.71100
O696        O  0.94065512  0.69704630  0.60051174    -0.71100
O697        O  0.85244126  0.69752652  0.60305679    -0.71100
O698        O  0.95546826  0.73361067  0.51670623    -0.71300
V699        V  0.94393577  0.79017981  0.58295771     1.35200
V700        V  0.90531809  0.71715889  0.56024771     1.35200
C701        C  0.99466143  0.77649402  0.51490410     0.78200
C702        C  0.85432690  0.73070256  0.62817430     0.78200
C703        C  0.97512224  0.73025661  0.62428860     0.78100
C704        C  0.87494742  0.77749044  0.51847692     0.78100
O705        O  0.95968398  0.30016709  0.51471388    -0.71100
O706        O  0.85441619  0.23655828  0.59985751    -0.71300
O707        O  0.94331594  0.32737091  0.59430697    -0.71100
O708        O  0.87294978  0.21139068  0.52082530    -0.71200
O709        O  0.91081618  0.17716519  0.55282476    -0.71100
O710        O  0.98245290  0.29375910  0.62484388    -0.71100
O711        O  0.89578962  0.20612249  0.63177087    -0.71100
O712        O  0.99993335  0.26779745  0.54524708    -0.71300
V713        V  0.90851528  0.26834668  0.55792992     1.35200
V714        V  0.94642348  0.23683434  0.58808008     1.35200
C715        C  0.99899700  0.29786967  0.51681573     0.78200
C716        C  0.85576601  0.20703116  0.62854751     0.78200
C717        C  0.97762089  0.33151494  0.62027127     0.78100
C718        C  0.87657706  0.17299594  0.52688321     0.78100
C719        C  0.42583450  0.42856803  0.51067090     0.03800
C720        C  0.42482234  0.38469936  0.52056535    -0.12300
C721        C  0.38123061  0.33804475  0.51581138     0.01300
C722        C  0.33747894  0.33643886  0.49808160    -0.10800
C723        C  0.33579667  0.38390440  0.99011565     0.03800
C724        C  0.37831944  0.42872174  0.00281855    -0.10300
H725        H  0.45936495  0.38723171  0.53100357     0.09400
H726        H  0.30440706  0.30100426  0.49086825     0.07000
H727        H  0.38048684  0.46414936  0.99766123     0.06800
C728        C  0.75091102  0.74103658  0.46831861     0.03800
C729        C  0.79124051  0.74060334  0.48739762    -0.12300
C730        C  0.83701180  0.78473985  0.49401155     0.01300
C731        C  0.84088162  0.83129645  0.48213507    -0.10800
C732        C  0.79922760  0.83007507  0.96378254     0.03800
C733        C  0.75600810  0.78426658  0.95596596    -0.10300
H734        H  0.78550695  0.70520348  0.49975224     0.09400
H735        H  0.87450209  0.86625385  0.48939104     0.07000
H736        H  0.72486705  0.78268143  0.93813594     0.06800
C737        C  0.08114666  0.75301219  0.81284475     0.03800
C738        C  0.12449060  0.79460820  0.82731447    -0.12300
C739        C  0.16986855  0.79598942  0.83000919     0.01300
C740        C  0.17098659  0.75240852  0.81774237    -0.10800
C741        C  0.12607080  0.70895750  0.80289916     0.03800
C742        C  0.08221607  0.71085410  0.80056093    -0.10300
H743        H  0.12180945  0.82536745  0.84010965     0.09400
H744        H  0.20542438  0.75225760  0.81976241     0.07000
H745        H  0.04788843  0.67898209  0.78871574     0.06800
C746        C  0.76037920  0.74694019  0.84008833     0.03800
C747        C  0.76356498  0.79334352  0.83640839    -0.12300
C748        C  0.72058697  0.79682427  0.83501964     0.01300
C749        C  0.67435394  0.75272261  0.82430672    -0.10800
C750        C  0.67215436  0.70588726  0.82282676     0.03800
C751        C  0.71341297  0.70427090  0.83907475    -0.10300
H752        H  0.79954825  0.82723558  0.83852969     0.09400
H753        H  0.64145984  0.75480121  0.81742103     0.07000
H754        H  0.70955739  0.66883542  0.84726202     0.06800
O755        O  0.82031362  0.90664312  0.92332044    -0.71100
O756        O  0.76437572  0.97090315  0.85405441    -0.71300
O757        O  0.81639696  0.99387129  0.93033588    -0.71100
O758        O  0.76824123  0.88526049  0.84728760    -0.71200
O759        O  0.69884325  0.84380724  0.88368074    -0.71100
O760        O  0.74673509  0.95130533  0.96608852    -0.71100
O761        O  0.69470767  0.92995962  0.89021817    -0.71100
O762        O  0.75096725  0.86789531  0.96019009    -0.71300
V763        V  0.79102843  0.93844043  0.88933842     1.35200
V764        V  0.72427409  0.89903414  0.92422068     1.35200
C765        C  0.79269683  0.87275520  0.95114407     0.78200
C766        C  0.72223560  0.96510804  0.86351556     0.78200
C767        C  0.78727718  0.99231197  0.96041383     0.78100
C768        C  0.72740547  0.84445434  0.85362280     0.78100
C769        C  0.42923472  0.09611509  0.83292464     0.03800
C770        C  0.39081687  0.05230946  0.85023739    -0.12300
C771        C  0.38651499  0.00645372  0.84203674     0.01300
C772        C  0.42755996  0.00579360  0.82205716    -0.10800
C773        C  0.47053929  0.05224047  0.80869630     0.03800
C774        C  0.46866248  0.09589319  0.81233485    -0.10300
H775        H  0.36272554  0.05377123  0.86969168     0.09400
H776        H  0.42599908  0.97084770  0.81685042     0.07000
H777        H  0.49818567  0.13060408  0.79812206     0.06800
C778        C  0.41536204  0.40482809  0.80607349     0.03800
C779        C  0.37367658  0.40513758  0.82057780    -0.12300
C780        C  0.37436362  0.44984084  0.82773500     0.01300
C781        C  0.41892542  0.49604329  0.81647900    -0.10800
C782        C  0.46096003  0.49513759  0.79898859     0.03800
C783        C  0.45738127  0.44901307  0.79359373    -0.10300
H784        H  0.34126105  0.36950389  0.82916760     0.09400
H785        H  0.42135029  0.53126743  0.82245167     0.07000
H786        H  0.48900700  0.44730877  0.78148082     0.06800
O787        O  0.20374378  0.40104282  0.84898382    -0.71100
O788        O  0.26893241  0.35978596  0.93432746    -0.71300
O789        O  0.18081461  0.36023464  0.93101589    -0.71100
O790        O  0.28978567  0.40030658  0.85124469    -0.71200
O791        O  0.32958346  0.47492360  0.87797229    -0.71100
O792        O  0.21888262  0.43539971  0.95683597    -0.71100
O793        O  0.30451701  0.43431365  0.96103489    -0.71100
O794        O  0.24145154  0.47611466  0.87487506    -0.71300
V795        V  0.23669465  0.38187657  0.89178494     1.35200
V796        V  0.27307343  0.45369355  0.91724341     1.35200
C797        C  0.20811360  0.44383513  0.84964988     0.78200
C798        C  0.29981564  0.39143015  0.96169967     0.78200
C799        C  0.17964821  0.39257443  0.95501270     0.78100
C800        C  0.32924427  0.44292076  0.85216134     0.78100
O801        O  0.29942918  0.96845094  0.84520371    -0.71100
O802        O  0.18045611  0.90771076  0.91492083    -0.71300
O803        O  0.27228261  0.99631590  0.91891484    -0.71100
O804        O  0.21064643  0.88325093  0.84170281    -0.71200
O805        O  0.23868868  0.84430988  0.88176505    -0.71100
O806        O  0.30163425  0.95824823  0.95848793    -0.71100
O807        O  0.21168035  0.87202952  0.95547404    -0.71100
O808        O  0.33064237  0.93237738  0.88524321    -0.71300
V809        V  0.24135973  0.93826023  0.88104722     1.35200
V810        V  0.27001904  0.90244532  0.91953249     1.35200
C811        C  0.33660448  0.96424382  0.85539119     0.78200
C812        C  0.17421415  0.87545755  0.94448560     0.78200
C813        C  0.30105001  0.99797826  0.95000779     0.78100
C814        C  0.21069775  0.84332761  0.85020402     0.78100
O815        O  0.60741115  0.66004146  0.76653362    -0.71100
O816        O  0.55038904  0.55240029  0.68295872    -0.71300
O817        O  0.51704652  0.57101772  0.75753329    -0.71100
O818        O  0.63890194  0.63962386  0.69098383    -0.71200
O819        O  0.66863475  0.59996580  0.72753325    -0.71100
O820        O  0.54885670  0.53485468  0.79650046    -0.71100
O821        O  0.57752126  0.51163767  0.72143368    -0.71100
O822        O  0.63736963  0.62059780  0.80286281    -0.71300
V823        V  0.57909173  0.60504942  0.72513878     1.35200
V824        V  0.60758868  0.56763225  0.76132044     1.35200
C825        C  0.63512262  0.65984763  0.79781063     0.78200
C826        C  0.55003876  0.51198502  0.69013929     0.78200
C827        C  0.51110055  0.53804223  0.78621620     0.78100
C828        C  0.67561735  0.63417655  0.69983780     0.78100
C829        C  0.39042506  0.19181511  0.81938223    -0.13700
C830        C  0.43603421  0.23516976  0.82647809     0.16700
C831        C  0.47753210  0.23282915  0.84080459     0.03000
C832        C  0.47346964  0.18660110  0.84515139    -0.12200
C833        C  0.42851613  0.14268094  0.83532539    -0.03200
C834        C  0.38572667  0.14542233  0.82423110     0.02300
C835        C  0.43726871  0.28191634  0.82145408     0.09100
N836        N  0.52386796  0.27679561  0.85071610     0.65500
H837        H  0.50605218  0.18509518  0.85547562     0.18400
N838        N  0.33732101  0.10247202  0.81783362     0.75900
H839        H  0.35796984  0.19412558  0.81011336     0.09900
C840        C  0.44340025  0.30450965  0.77908324     0.03600
C841        C  0.43464058  0.34386689  0.77379097    -0.05100
C842        C  0.41856039  0.35963746  0.81041821    -0.23500
C843        C  0.41163490  0.33562166  0.85257969     0.12800
C844        C  0.42163618  0.29749535  0.85773640    -0.12700
N845        N  0.45596906  0.28586180  0.74119713     0.64500
H846        H  0.44003297  0.36192861  0.74128486     0.12400
N847        N  0.39525494  0.34970097  0.89094755     0.61100
H848        H  0.41524427  0.27850953  0.88995638     0.08500
O849        O  0.31846594  0.09426911  0.77907845    -0.40300
O850        O  0.30819595  0.08608104  0.85091536    -0.39500
O851        O  0.53480946  0.28960717  0.89105184    -0.39500
O852        O  0.55806849  0.29397111  0.82187584    -0.37200
O853        O  0.34933658  0.32638092  0.89958771    -0.38100
O854        O  0.42583119  0.37094613  0.92247074    -0.34300
O855        O  0.42172202  0.24932310  0.72036619    -0.35700
O856        O  0.50039579  0.29673115  0.73615178    -0.40000
C857        C  0.98319858  0.78985394  0.81673333    -0.13700
C858        C  0.94605776  0.74982690  0.84153617     0.16700
C859        C  0.95204741  0.70925779  0.85334303     0.03000
C860        C  0.99535666  0.71030803  0.84147454    -0.12200
C861        C  0.03335821  0.75104321  0.81807240    -0.03200
C862        C  0.02664623  0.79086963  0.80480636     0.02300
C863        C  0.89803318  0.74691035  0.84725290     0.09100
N864        N  0.91441533  0.66649042  0.87703153     0.65500
H865        H  0.99964608  0.67915820  0.85142605     0.18400
N866        N  0.06195780  0.83104074  0.77707344     0.75900
H867        H  0.97751680  0.81957925  0.80476094     0.09900
C868        C  0.89359347  0.78479474  0.86745559     0.03600
C869        C  0.84762860  0.78190744  0.86737193    -0.05100
C870        C  0.80600822  0.74339014  0.84516619    -0.23500
C871        C  0.81085940  0.70467934  0.82587907     0.12800
C872        C  0.85651179  0.70733185  0.82718846    -0.12700
N873        N  0.93558913  0.82746943  0.88654843     0.64500
H874        H  0.84522579  0.81109118  0.88414511     0.12400
N875        N  0.77171182  0.66352068  0.80237896     0.61100
H876        H  0.86005147  0.67894924  0.81000840     0.08500
O877        O  0.08910877  0.87340790  0.79413235    -0.40300
O878        O  0.05542222  0.82812385  0.73516539    -0.39500
O879        O  0.88893894  0.62610979  0.85629521    -0.39500
O880        O  0.91650026  0.66527329  0.91925527    -0.37200
O881        O  0.77717945  0.66130369  0.76090794    -0.38100
O882        O  0.74610057  0.62295549  0.82367676    -0.34300
O883        O  0.95620019  0.86796478  0.86448251    -0.35700
O884        O  0.94214835  0.82858658  0.92840809    -0.40000
C885        C  0.61697565  0.64930712  0.49585395    -0.13700
C886        C  0.61433033  0.60515285  0.48399768     0.16700
C887        C  0.65041098  0.60581594  0.96863854     0.03000
C888        C  0.69508099  0.65028670  0.96178529    -0.12200
C889        C  0.70173341  0.69562440  0.46900434    -0.03200
C890        C  0.66008426  0.69477252  0.48808512     0.02300
C891        C  0.56778140  0.55906296  0.49150760     0.09100
N892        N  0.64527471  0.56022301  0.95381113     0.65500
H893        H  0.72588870  0.64949193  0.94639624     0.18400
N894        N  0.66087256  0.73909652  0.50070200     0.75900
H895        H  0.58523273  0.64836832  0.51120701     0.09900
C896        C  0.55609543  0.53462889  0.53336876     0.03600
C897        C  0.50914813  0.49218082  0.53987220    -0.05100
C898        C  0.47380332  0.47522738  0.50504055    -0.23500
C899        C  0.48217557  0.50387807  0.96885883     0.12800
C900        C  0.52900835  0.54552562  0.96288742    -0.12700
N901        N  0.59140222  0.55331489  0.56929915     0.64500
H902        H  0.50022252  0.47263297  0.57167410     0.12400
N903        N  0.44929416  0.48728891  0.93126370     0.61100
H904        H  0.53847160  0.56541499  0.93104600     0.08500
O905        O  0.64274337  0.75745427  0.47399351    -0.40300
O906        O  0.66400738  0.74944715  0.54169000    -0.39500
O907        O  0.63454704  0.54818348  0.91328999    -0.39500
O908        O  0.66265494  0.53890253  0.97764376    -0.37200
O909        O  0.42492854  0.50838468  0.92252194    -0.38100
O910        O  0.45806583  0.46632965  0.90001921    -0.34300
O911        O  0.62699092  0.54529929  0.56953612    -0.35700
O912        O  0.59421465  0.58742202  0.59341374    -0.40000
C913        C  0.79501587  0.98512322  0.73343282    -0.13700
C914        C  0.78962560  0.95544536  0.69640859     0.16700
C915        C  0.78285793  0.97062730  0.65314496     0.03000
C916        C  0.77548110  0.01068786  0.64835476    -0.12200
C917        C  0.77747971  0.03781620  0.68555980    -0.03200
C918        C  0.79043033  0.02721799  0.72773681     0.02300
C919        C  0.78515150  0.90615605  0.70296739     0.09100
N920        N  0.78555551  0.94718746  0.61347421     0.65500
H921        H  0.76941256  0.02153317  0.61519242     0.18400
N922        N  0.80047747  0.06026295  0.76405941     0.75900
H923        H  0.80136898  0.97498167  0.76668478     0.09900
C924        C  0.82086815  0.89937503  0.72638963     0.03600
C925        C  0.81673819  0.85259479  0.72677402    -0.05100
C926        C  0.77811032  0.81284910  0.70356021    -0.23500
C927        C  0.74134096  0.81897319  0.68191469     0.12800
C928        C  0.74416513  0.86477774  0.68323015    -0.12700
N929        N  0.86350905  0.93998361  0.74689272     0.64500
H930        H  0.84506785  0.84788056  0.74343788     0.12400
N931        N  0.70455341  0.78085965  0.65391249     0.61100
H932        H  0.71562517  0.86882404  0.66623496     0.08500
O933        O  0.76773064  0.07022945  0.77449192    -0.40300
O934        O  0.84519273  0.09068397  0.77440513    -0.39500
O935        O  0.74663232  0.92182295  0.59043991    -0.39500
O936        O  0.82734260  0.96421106  0.59499258    -0.37200
O937        O  0.71792821  0.76947521  0.61857152    -0.38100
O938        O  0.66068399  0.75334018  0.66801607    -0.34300
O939        O  0.86597900  0.94192488  0.78912368    -0.35700
O940        O  0.90316940  0.96333064  0.72456070    -0.40000
C941        C  0.28817721  0.39203803  0.65384817    -0.13700
C942        C  0.29138452  0.43182412  0.62873310     0.16700
C943        C  0.33737417  0.46857864  0.61077708     0.03000
C944        C  0.37911293  0.46426325  0.61717468    -0.12200
C945        C  0.37606379  0.42446778  0.64230222    -0.03200
C946        C  0.33009315  0.38806677  0.66091285     0.02300
C947        C  0.24712713  0.43626367  0.62474757     0.09100
N948        N  0.34236624  0.51072494  0.58652769     0.65500
H949        H  0.41431145  0.49236963  0.60253941     0.18400
N950        N  0.32581513  0.34837296  0.68875218     0.75900
H951        H  0.25310942  0.36460547  0.66913821     0.09900
C952        C  0.20425037  0.40038557  0.60221671     0.03600
C953        C  0.16191165  0.40416007  0.60166763    -0.05100
C954        C  0.15906485  0.43969554  0.62768408    -0.23500
C955        C  0.20280142  0.47602240  0.65028770     0.12800
C956        C  0.24639213  0.47441983  0.64759152    -0.12700
N957        N  0.20157126  0.35745721  0.58322879     0.64500
H958        H  0.13010946  0.37700480  0.58240194     0.12400
N959        N  0.20325955  0.51217590  0.67918327     0.61100
H960        H  0.27914124  0.50135507  0.66613813     0.08500
O961        O  0.30625344  0.30514314  0.67285069    -0.40300
O962        O  0.32849170  0.35339552  0.73072074    -0.39500
O963        O  0.36138979  0.55221387  0.60582200    -0.39500
O964        O  0.33953004  0.50945339  0.54431123    -0.37200
O965        O  0.19780575  0.50282885  0.72066186    -0.38100
O966        O  0.22418657  0.55704044  0.66598280    -0.34300
O967        O  0.17857083  0.31632815  0.60418470    -0.35700
O968        O  0.21075041  0.35776454  0.54217848    -0.40000
C969        C  0.11998030  0.64694443  0.96153787    -0.13700
C970        C  0.07906291  0.60643597  0.94129663     0.16700
C971        C  0.03802279  0.61042460  0.92741444     0.03000
C972        C  0.03895562  0.65489735  0.93363583    -0.12200
C973        C  0.07842313  0.69359925  0.45376090    -0.03200
C974        C  0.11912883  0.68985494  0.46966965     0.02300
C975        C  0.07667869  0.55835843  0.94241516     0.09100
N976        N  0.99461043  0.56934574  0.90817898     0.65500
H977        H  0.00681776  0.65731028  0.92359838     0.18400
N978        N  0.15941720  0.72912255  0.49402841     0.75900
H979        H  0.14882709  0.64223263  0.47913590     0.09900
C980        C  0.11388104  0.55212955  0.92311869     0.03600
C981        C  0.11228739  0.50706835  0.92902156    -0.05100
C982        C  0.07994492  0.46935658  0.46231532    -0.23500
C983        C  0.04340652  0.47630795  0.48308293     0.12800
C984        C  0.04137869  0.51894113  0.47345007    -0.12700
N985        N  0.15654981  0.59280817  0.90208854     0.64500
H986        H  0.13968891  0.50228516  0.91164520     0.12400
N987        N  0.01150406  0.44375155  0.51758827     0.61100
H988        H  0.01423994  0.52435116  0.49070573     0.08500
O989        O  0.20097096  0.75505642  0.47496527    -0.40300
O990        O  0.15788792  0.72762680  0.53630640    -0.39500
O991        O  0.95637582  0.54476950  0.93216333    -0.39500
O992        O  0.98993211  0.56719627  0.86608442    -0.37200
O993        O  0.02521266  0.45512921  0.55764978    -0.38100
O994        O  0.96564931  0.41604925  0.50938118    -0.34300
O995        O  0.19752131  0.61365268  0.92294242    -0.35700
O996        O  0.15634589  0.59974572  0.86038781    -0.40000
C997        C  0.56724580  0.12824315  0.99969394    -0.13700
C998        C  0.56385587  0.08182884  0.00020820     0.16700
C999        C  0.51626610  0.03814232  0.00098625     0.03000
C1000       C  0.47398779  0.04198628  0.99954003    -0.12200
C1001       C  0.47726269  0.08831854  0.99435011    -0.03200
C1002       C  0.52515693  0.13215317  0.99428075     0.02300
C1003       C  0.61017208  0.08003671  0.99950029     0.09100
N1004       N  0.50968671  0.98937996  0.00124413     0.65500
H1005       H  0.43810911  0.00767450  0.00137563     0.18400
N1006       N  0.53275525  0.18058240  0.98474100     0.75900
H1007       H  0.60328056  0.16230699  0.00167507     0.09900
C1008       C  0.65005737  0.11110467  0.97031658     0.03600
C1009       C  0.69325537  0.10882605  0.97156610    -0.05100
C1010       C  0.69752242  0.07563305  0.00058443    -0.23500
C1011       C  0.65760846  0.04228569  0.53718247     0.12800
C1012       C  0.61408678  0.04419089  0.53625690    -0.12700
N1013       N  0.64778294  0.14537531  0.93935837     0.64500
H1014       H  0.72381986  0.13310008  0.94941323     0.12400
N1015       N  0.66174313  0.00950686  0.56846197     0.61100
H1016       H  0.58582210  0.02300144  0.56127497     0.08500
O1017       O  0.54653739  0.21162057  0.01607726    -0.40300
O1018       O  0.54182707  0.19673279  0.94483932    -0.39500
O1019       O  0.49423536  0.96300604  0.03653283    -0.39500
O1020       O  0.50474503  0.96821816  0.96432460    -0.37200
O1021       O  0.67186029  0.02239277  0.60878537    -0.38100
O1022       O  0.64166769  0.96394472  0.55910303    -0.34300
O1023       O  0.67504069  0.19160703  0.94595344    -0.35700
O1024       O  0.62933729  0.13054668  0.90092140    -0.40000
C1025       C  0.85697422  0.22098411  0.81877404    -0.13700
C1026       C  0.89703602  0.22529188  0.84309196     0.16700
C1027       C  0.88925799  0.19141359  0.87794707     0.03000
C1028       C  0.84104586  0.15265097  0.88706582    -0.12200
C1029       C  0.80023480  0.14624844  0.86139087    -0.03200
C1030       C  0.80887445  0.18270137  0.82774312     0.02300
C1031       C  0.94521054  0.26974339  0.83478729     0.09100
N1032       N  0.92969941  0.19596574  0.90433875     0.65500
H1033       H  0.83576153  0.12654941  0.91390693     0.18400
N1034       N  0.77027896  0.18146880  0.80096801     0.75900
H1035       H  0.86313540  0.24828164  0.79263234     0.09900
C1036       C  0.98096411  0.26919313  0.80731244     0.03600
C1037       C  0.02468053  0.31409240  0.79733374    -0.05100
C1038       C  0.03147714  0.35952636  0.81263481    -0.23500
C1039       C  0.99321129  0.35959716  0.83719744     0.12800
C1040       C  0.95135096  0.31471471  0.84908410    -0.12700
N1041       N  0.97198698  0.22387389  0.78774536     0.64500
H1042       H  0.05318006  0.31368825  0.77740277     0.12400
N1043       N  0.99573467  0.40454775  0.85041040     0.61100
H1044       H  0.92233735  0.31498550  0.86839314     0.08500
O1045       O  0.75306238  0.20846078  0.81202648    -0.40300
O1046       O  0.76726428  0.16935137  0.76056164    -0.39500
O1047       O  0.94535964  0.22540711  0.93692716    -0.39500
O1048       O  0.94131527  0.16294002  0.90188824    -0.37200
O1049       O  0.97598094  0.42258098  0.82530157    -0.38100
O1050       O  0.00126639  0.41530272  0.89135836    -0.34300
O1051       O  0.98380968  0.19617542  0.80896356    -0.35700
O1052       O  0.94463377  0.20747899  0.75338232    -0.40000
C1053       C  0.21842959  0.87774241  0.60925954    -0.13700
C1054       C  0.25312044  0.88746293  0.64321858     0.16700
C1055       C  0.23823619  0.85998659  0.68374564     0.03000
C1056       C  0.18854336  0.82372147  0.68993923    -0.12200
C1057       C  0.15368309  0.81343773  0.65569181    -0.03200
C1058       C  0.16889916  0.84093482  0.61517742     0.02300
C1059       C  0.30016354  0.93438151  0.64055530     0.09100
N1060       N  0.27330057  0.86835607  0.71860651     0.65500
H1061       H  0.17730846  0.80231850  0.72112209     0.18400
N1062       N  0.13510067  0.83017369  0.57888807     0.75900
H1063       H  0.22958768  0.89996347  0.57851865     0.09900
C1064       C  0.33669116  0.94437746  0.60825818     0.03600
C1065       C  0.37861807  0.99198360  0.60555078    -0.05100
C1066       C  0.38379458  0.02945132  0.63389345    -0.23500
C1067       C  0.34672110  0.01936624  0.66545590     0.12800
C1068       C  0.30522064  0.97209990  0.66835031    -0.12700
N1069       N  0.33251661  0.90664512  0.57915859     0.64500
H1070       H  0.40791141  0.99963412  0.58184447     0.12400
N1071       N  0.35220462  0.05579698  0.69673138     0.61100
H1072       H  0.27642456  0.96477576  0.69250921     0.08500
O1073       O  0.13225031  0.80082718  0.54904102    -0.40300
O1074       O  0.11785701  0.85826915  0.57126269    -0.39500
O1075       O  0.27487726  0.89234787  0.75276555    -0.39500
O1076       O  0.29285983  0.84173044  0.72040849    -0.37200
O1077       O  0.33071788  0.08002171  0.68901064    -0.38100
O1078       O  0.36690303  0.05422762  0.73595807    -0.34300
O1079       O  0.32237057  0.90822987  0.53831811    -0.35700
O1080       O  0.35277593  0.88213654  0.59068431    -0.40000
loop_ 
_geom_bond_atom_site_label_1 
_geom_bond_atom_site_label_2 
_geom_bond_distance 
_geom_bond_site_symmetry_2 
_ccdc_geom_bond_type 
C1            C2   1.379       .  A
C1            C6   1.386       .  A
C1          C517   1.466       .  S
C2            C3   1.396       .  A
C2            H7   1.085       .  S
C3            C4   1.432       .  A
C3           C61   1.498       .  S
C4            C5   1.436       .  A
C4            H8   1.082   1_455  S
C5            C6   1.407       .  A
C5          C163   1.502   1_455  S
C6            H9   1.083       .  S
C10          C11   1.378       .  A
C10          C15   1.377       .  A
C10         C526   1.456       .  S
C11          C12   1.400       .  A
C11          H16   1.084       .  S
C12          C13   1.445       .  A
C12          C48   1.511       .  S
C13          C14   1.441       .  A
C13          H17   1.082       .  S
C14          C15   1.396       .  A
C14         C131   1.503       .  S
C15          H18   1.086       .  S
C19          C20   1.379       .  A
C19          C24   1.385       .  A
C19         C498   1.469       .  S
C20          C21   1.400       .  A
C20          H25   1.083       .  S
C21          C22   1.439       .  A
C21          C62   1.506       .  S
C22          C23   1.440       .  A
C22          H26   1.082       .  S
C23          C24   1.404       .  A
C23         C257   1.507       .  S
C24          H27   1.085       .  S
C28          C29   1.386       .  A
C28          C33   1.391       .  A
C28         C489   1.483       .  S
C29          C30   1.405       .  A
C29          H34   1.081       .  S
C30          C31   1.434       .  A
C30          C47   1.506       .  S
C31          C32   1.431       .  A
C31          H35   1.082   1_545  S
C32          C33   1.399       .  A
C32         C226   1.494   1_545  S
C33          H36   1.083       .  S
O37          V45   1.935       .  S
O37          C47   1.267       .  A
O38          V45   1.903       .  S
O38          C48   1.275       .  A
O39          V45   1.903       .  S
O39          C49   1.269       .  A
O40          V45   1.929       .  S
O40          C50   1.264       .  A
O41          V46   1.902       .  S
O41          C50   1.273       .  A
O42          V46   1.934       .  S
O42          C49   1.269       .  A
O43          V46   1.929       .  S
O43          C48   1.264       .  A
O44          V46   1.893       .  S
O44          C47   1.270       .  A
V45          V46   2.080       .  T
C49         C146   1.504       .  S
C50         C233   1.502       .  S
O51          V59   1.926       .  S
O51          C61   1.264       .  A
O52          V59   1.898       .  S
O52          C62   1.271       .  A
O53          V59   1.907       .  S
O53          C63   1.272       .  A
O54          V59   1.937       .  S
O54          C64   1.268       .  A
O55          V60   1.888       .  S
O55          C64   1.268       .  A
O56          V60   1.927       .  S
O56          C63   1.266       .  A
O57          V60   1.937       .  S
O57          C62   1.268       .  A
O58          V60   1.894       .  S
O58          C61   1.271       .  A
V59          V60   2.081       .  T
C63         C201   1.504       .  S
C64         C103   1.504       .  S
C65          C66   1.382       .  A
C65         C610   1.384       .  A
C65         C470   1.465       .  S
C66          C67   1.407       .  A
C66          H71   1.085       .  S
C67          C68   1.438       .  A
C67         C227   1.507   1_545  S
C68         C609   1.438       .  A
C68          H72   1.082       .  S
C69          C70   1.399       .  A
C69         C608   1.438   1_554  A
C69         C178   1.503       .  S
C70         C605   1.382       .  A
C70          H73   1.085       .  S
C74          C79   1.393       .  A
C74         C615   1.384       .  A
C74         C461   1.486       .  S
C75          C76   1.398       .  A
C75         C614   1.383   1_554  A
C75          H80   1.079       .  S
C76         C617   1.437   1_554  A
C76         C129   1.502       .  S
C77          C78   1.437       .  A
C77         C616   1.437       .  A
C77          H81   1.082       .  S
C78          C79   1.404       .  A
C78         C273   1.507   1_545  S
C79          H82   1.084       .  S
C83          C88   1.389       .  A
C83         C624   1.395       .  A
C83         C442   1.487       .  S
C84          C85   1.403       .  A
C84         C623   1.396       .  A
C84          H89   1.081       .  S
C85         C626   1.430       .  A
C85         C259   1.500       .  S
C86          C87   1.430       .  A
C86         C625   1.430       .  A
C86          H90   1.082       .  S
C87          C88   1.402       .  A
C87         C175   1.502   1_456  S
C88          H91   1.079       .  S
C92          C93   1.389       .  A
C92         C637   1.378       .  A
C92         C433   1.469       .  S
C93          C94   1.407       .  A
C93          H98   1.084       .  S
C94         C635   1.437       .  A
C94         C161   1.506   1_456  S
C95          C96   1.432       .  A
C95         C634   1.437       .  A
C95          H99   1.082       .  S
C96          C97   1.396       .  A
C96         C272   1.494       .  S
C97         C632   1.379       .  A
C97         H100   1.084       .  S
C101        C102   1.387       .  A
C101        C106   1.397       .  A
C101        C414   1.492       .  S
C102        C103   1.405       .  A
C102        H107   1.079       .  S
C103        C104   1.433       .  A
C104        C105   1.432       .  A
C104        H108   1.082   1_455  S
C105        C106   1.404       .  A
C105        C177   1.506   1_455  S
C106        H109   1.081       .  S
C110        C111   1.384       .  A
C110        C115   1.388       .  A
C110        C405   1.474       .  S
C111        C112   1.403       .  A
C111        H116   1.084       .  S
C112        C113   1.435       .  A
C112        C130   1.500       .  S
C113        C114   1.435       .  A
C113        H117   1.082       .  S
C114        C115   1.403       .  A
C114        C286   1.502       .  S
C115        H118   1.085       .  S
O119        V127   1.905       .  S
O119        C129   1.272       .  A
O120        V127   1.933       .  S
O120        C130   1.268       .  A
O121        V127   1.932       .  S
O121        C131   1.267       .  A
O122        V127   1.904       .  S
O122        C132   1.270       .  A
O123        V128   1.935       .  S
O123        C132   1.269       .  A
O124        V128   1.912       .  S
O124        C131   1.273       .  A
O125        V128   1.902       .  S
O125        C130   1.269       .  A
O126        V128   1.934       .  S
O126        C129   1.267       .  A
V127        V128   2.081       .  T
C132        C181   1.501       .  S
C133        C134   1.387       .  A
C133        C138   1.383       .  A
C133        C386   1.470       .  S
C134        C135   1.408       .  A
C134        H139   1.084       .  S
C135        C136   1.440       .  A
C135        C162   1.511       .  S
C136        C137   1.436       .  A
C136        H140   1.082       .  S
C137        C138   1.396       .  A
C137        C288   1.498       .  S
C138        H141   1.085       .  S
C142        C143   1.376       .  A
C142        C147   1.386       .  A
C142        C377   1.461       .  S
C143        C144   1.400       .  A
C143        H148   1.085       .  S
C144        C145   1.436       .  A
C144        C176   1.500       .  S
C145        C146   1.437       .  A
C145        H149   1.082       .  S
C146        C147   1.406       .  A
C147        H150   1.085       .  S
O151        V159   1.931       .  S
O151        C161   1.267       .  A
O152        V159   1.903       .  S
O152        C162   1.272       .  A
O153        V159   1.902       .  S
O153        C163   1.270       .  A
O154        V159   1.926       .  S
O154        C164   1.265       .  A
O155        V160   1.899       .  S
O155        C164   1.271       .  A
O156        V160   1.928       .  S
O156        C163   1.266       .  A
O157        V160   1.932       .  S
O157        C162   1.267       .  A
O158        V160   1.902       .  S
O158        C161   1.271       .  A
V159        V160   2.081       .  T
C164        C190   1.500   1_554  S
O165        V173   1.892       .  S
O165        C175   1.269       .  A
O166        V173   1.924       .  S
O166        C176   1.264       .  A
O167        V173   1.937       .  S
O167        C177   1.270       .  A
O168        V173   1.906       .  S
O168        C178   1.273       .  A
O169        V174   1.930       .  S
O169        C178   1.265       .  A
O170        V174   1.902       .  S
O170        C177   1.269       .  A
O171        V174   1.897       .  S
O171        C176   1.272       .  A
O172        V174   1.931       .  S
O172        C175   1.267       .  A
V173        V174   2.081       .  T
C179        C180   1.382       .  A
C179        C724   1.381       .  A
C179        C358   1.470       .  S
C180        C181   1.403       .  A
C180        H185   1.085       .  S
C181        C182   1.438   1_554  A
C182        C723   1.440       .  A
C182        H186   1.082       .  S
C183        C184   1.403       .  A
C183        C722   1.441       .  A
C183        C258   1.513       .  S
C184        C719   1.381       .  A
C184        H187   1.082       .  S
C188        C189   1.387       .  A
C188        C733   1.374       .  A
C188        C349   1.466       .  S
C189        C190   1.404       .  A
C189        H194   1.084   1_556  S
C190        C191   1.436       .  A
C191        C732   1.431       .  A
C191        H195   1.082       .  S
C192        C193   1.396       .  A
C192        C731   1.431       .  A
C192        C225   1.489       .  S
C193        C728   1.372       .  A
C193        H196   1.084       .  S
C197        C198   1.383       .  A
C197        C202   1.391       .  A
C197        C321   1.477       .  S
C198        C199   1.401       .  A
C198        H203   1.083       .  S
C199        C200   1.434       .  A
C199        C274   1.501       .  S
C200        C201   1.435       .  A
C200        H204   1.082       .  S
C201        C202   1.405       .  A
C202        H205   1.084       .  S
C206        C207   1.407       .  A
C206        C211   1.389       .  A
C206        C330   1.499       .  S
C207        C208   1.407       .  A
C207        H212   1.082       .  S
C208        C209   1.431       .  A
C208        C228   1.507       .  S
C209        C210   1.429       .  A
C209        H213   1.082       .  S
C210        C211   1.398       .  A
C210        C285   1.507       .  S
C211        H214   1.074       .  S
O215        V223   1.930       .  S
O215        C225   1.266       .  A
O216        V223   1.909       .  S
O216        C226   1.272       .  A
O217        V223   1.942       .  S
O217        C227   1.270       .  A
O218        V223   1.920       .  S
O218        C228   1.273       .  A
O219        V224   1.927       .  S
O219        C228   1.267       .  A
O220        V224   1.895       .  S
O220        C227   1.268       .  A
O221        V224   1.919       .  S
O221        C226   1.264       .  A
O222        V224   1.890       .  S
O222        C225   1.268       .  A
V223        V224   2.082       .  T
C229        C230   1.375       .  A
C229        C234   1.388       .  A
C229        C293   1.469       .  S
C230        C231   1.397       .  A
C230        H235   1.082       .  S
C231        C232   1.434       .  A
C231        C271   1.491   1_545  S
C232        C233   1.436       .  A
C232        H236   1.082   1_545  S
C233        C234   1.400       .  A
C234        H237   1.084       .  S
C238        C239   1.386       .  A
C238        C243   1.379       .  A
C238        C302   1.469       .  S
C239        C240   1.407       .  A
C239        H244   1.082       .  S
C240        C241   1.438       .  A
C240        C260   1.510       .  S
C241        C242   1.435       .  A
C241        H245   1.082       .  S
C242        C243   1.399       .  A
C242        C287   1.496       .  S
C243        H246   1.086       .  S
O247        V255   1.907       .  S
O247        C257   1.274       .  A
O248        V255   1.941       .  S
O248        C258   1.268       .  A
O249        V255   1.922       .  S
O249        C259   1.265       .  A
O250        V255   1.899       .  S
O250        C260   1.270       .  A
O251        V256   1.940       .  S
O251        C260   1.269       .  A
O252        V256   1.907       .  S
O252        C259   1.271       .  A
O253        V256   1.898       .  S
O253        C258   1.271       .  A
O254        V256   1.928       .  S
O254        C257   1.265       .  A
V255        V256   2.080       .  T
O261        V269   1.894       .  S
O261        C271   1.269       .  A
O262        V269   1.927       .  S
O262        C272   1.265       .  A
O263        V269   1.937       .  S
O263        C273   1.268       .  A
O264        V269   1.900       .  S
O264        C274   1.270       .  A
O265        V270   1.932       .  S
O265        C274   1.267       .  A
O266        V270   1.904       .  S
O266        C273   1.271       .  A
O267        V270   1.902       .  S
O267        C272   1.271       .  A
O268        V270   1.929       .  S
O268        C271   1.266       .  A
V269        V270   2.082       .  T
O275        V283   1.935       .  S
O275        C285   1.268       .  A
O276        V283   1.905       .  S
O276        C286   1.271       .  A
O277        V283   1.929       .  S
O277        C287   1.266       .  A
O278        V283   1.911       .  S
O278        C288   1.270       .  A
O279        V284   1.930       .  S
O279        C288   1.268       .  A
O280        V284   1.901       .  S
O280        C287   1.270       .  A
O281        V284   1.929       .  S
O281        C286   1.266       .  A
O282        V284   1.898       .  S
O282        C285   1.270       .  A
V283        V284   2.081       .  T
C289        C290   1.392       .  A
C289        C294   1.386       .  A
C289        H299   1.087       .  S
C290        C291   1.400       .  A
C290        C295   1.446       .  S
C291        C292   1.387       .  A
C291        N296   1.427       .  S
C292        C293   1.404       .  A
C292        H297   1.086       .  S
C293        C294   1.419       .  A
C294        N298   1.431       .  S
C295        C300   1.402       .  A
C295        C304   1.387       .  A
N296        O311   1.262       .  A
N296        O312   1.262       .  A
N298        O309   1.261       .  A
N298        O310   1.262       .  A
C300        C301   1.398       .  A
C300        N305   1.429       .  S
C301        C302   1.407       .  A
C301        H306   1.080       .  S
C302        C303   1.414       .  A
C303        C304   1.384       .  A
C303        N307   1.426       .  S
C304        H308   1.085       .  S
N305        O315   1.261       .  A
N305        O316   1.262       .  A
N307        O313   1.261       .  A
N307        O314   1.261       .  A
C317        C318   1.400       .  A
C317        C322   1.395   1_655  A
C317        H327   1.085       .  S
C318        C319   1.413       .  A
C318        C323   1.474       .  S
C319        C320   1.391       .  A
C319        N324   1.430       .  S
C320        C321   1.400   1_655  A
C320        H325   1.085   1_655  S
C321        C322   1.414       .  A
C322        N326   1.429       .  S
C323        C328   1.409       .  A
C323        C332   1.390       .  A
N324        O339   1.263       .  A
N324        O340   1.261       .  A
N326        O337   1.262       .  A
N326        O338   1.262       .  A
C328        C329   1.396       .  A
C328        N333   1.428       .  S
C329        C330   1.408       .  A
C329        H334   1.084       .  S
C330        C331   1.429       .  A
C331        C332   1.390       .  A
C331        N335   1.429       .  S
C332        H336   1.087       .  S
N333        O343   1.262       .  A
N333        O344   1.261       .  A
N335        O341   1.259       .  A
N335        O342   1.263       .  A
C345        C346   1.391   1_554  A
C345        C350   1.387   1_554  A
C345        H355   1.086       .  S
C346        C887   1.403       .  A
C346        C351   1.448       .  S
C347        C348   1.388       .  A
C347        C886   1.402       .  A
C347        N352   1.427       .  S
C348        C889   1.400       .  A
C348        H353   1.086       .  S
C349        C350   1.418       .  A
C349        C888   1.401       .  A
C350        N354   1.431   1_556  S
C351        C356   1.402   1_556  A
C351        C900   1.386       .  A
N352        O367   1.262       .  A
N352        O368   1.262       .  A
N354        O365   1.262   1_554  A
N354        O366   1.260       .  A
C356        C357   1.398       .  A
C356        N361   1.429       .  S
C357        C358   1.405       .  A
C357        H362   1.073       .  S
C358        C899   1.415   1_554  A
C359        C360   1.383       .  A
C359        C898   1.415       .  A
C359        N363   1.424       .  S
C360        C891   1.385       .  A
C360        H364   1.084       .  S
N361        O371   1.262       .  A
N361        O372   1.262       .  A
N363        O369   1.261       .  A
N363        O370   1.260       .  A
C373        C374   1.407       .  A
C373        C378   1.400   1_565  A
C373        H383   1.083       .  S
C374        C375   1.419       .  A
C374        C379   1.485       .  S
C375        C376   1.392   1_565  A
C375        N380   1.429       .  S
C376        C377   1.391       .  A
C376        H381   1.086       .  S
C377        C378   1.402       .  A
C378        N382   1.427       .  S
C379        C384   1.417       .  A
C379        C388   1.404       .  A
N380        O395   1.262       .  A
N380        O396   1.262       .  A
N382        O393   1.259       .  A
N382        O394   1.262       .  A
C384        C385   1.400       .  A
C384        N389   1.427       .  S
C385        C386   1.397       .  A
C385        H390   1.085       .  S
C386        C387   1.409       .  A
C387        C388   1.392       .  A
C387        N391   1.431       .  S
C388        H392   1.083       .  S
N389        O399   1.262       .  A
N389        O400   1.262       .  A
N391        O397   1.262       .  A
N391        O398   1.262       .  A
C401        C402   1.399       .  A
C401        C406   1.395       .  A
C401        H411   1.087       .  S
C402        C403   1.408       .  A
C402        C407   1.469       .  S
C403        C404   1.392       .  A
C403        N408   1.429       .  S
C404        C405   1.402       .  A
C404        H409   1.087       .  S
C405        C406   1.412       .  A
C406        N410   1.429       .  S
C407        C412   1.406       .  A
C407        C416   1.395       .  A
N408        O423   1.262       .  A
N408        O424   1.261       .  A
N410        O421   1.262       .  A
N410        O422   1.261       .  A
C412        C413   1.392       .  A
C412        N417   1.428       .  S
C413        C414   1.406       .  A
C413        H418   1.085       .  S
C414        C415   1.423       .  A
C415        C416   1.394       .  A
C415        N419   1.428       .  S
C416        H420   1.087       .  S
N417        O427   1.262       .  A
N417        O428   1.260       .  A
N419        O425   1.260       .  A
N419        O426   1.262       .  A
C429        C430   1.397       .  A
C429        C974   1.389       .  A
C429        H979   1.085       .  S
C430        C431   1.411       .  A
C430        C435   1.467       .  S
C431        C432   1.393       .  A
C431        N436   1.428   1_455  S
C432        C973   1.398       .  A
C432        H437   1.085       .  S
C433        C434   1.415       .  A
C433        C972   1.398       .  A
C434        C969   1.389       .  A
C434        N438   1.430       .  S
C435        C440   1.408       .  A
C435        C984   1.394       .  A
N436        O451   1.262       .  A
N436        O452   1.261       .  A
N438        O449   1.262       .  A
N438        O450   1.262   1_556  A
H439        C969   1.086       .  S
C440        C441   1.392       .  A
C440        N445   1.429       .  S
C441        C982   1.406       .  A
C441        H446   1.083       .  S
C442        C443   1.420       .  A
C442        C981   1.407       .  A
C443        C444   1.391       .  A
C443        N447   1.428   1_556  S
C444        C975   1.395       .  A
C444        H448   1.086       .  S
N445        O455   1.262       .  A
N445        O456   1.259       .  A
N447        O453   1.260       .  A
N447        O454   1.262   1_455  A
C457        C458   1.399       .  A
C457        C462   1.392       .  A
C457        H467   1.086       .  S
C458        C459   1.412       .  A
C458        C463   1.480       .  S
C459        C460   1.391       .  A
C459        N464   1.429   1_545  S
C460        C461   1.404       .  A
C460        H465   1.086       .  S
C461        C462   1.418       .  A
C462        N466   1.430       .  S
C463        C468   1.418       .  A
C463       C1012   1.403       .  A
N464        O479   1.262       .  A
N464        O480   1.262       .  A
N466        O477   1.262       .  A
N466        O478   1.262       .  A
C468        C469   1.392       .  A
C468        N473   1.430       .  S
C469        C470   1.396       .  A
C469        H474   1.087       .  S
C470       C1011   1.406       .  A
C471        C472   1.393       .  A
C471       C1010   1.405       .  A
C471        N475   1.427       .  S
C472       C1003   1.403   1_554  A
C472        H476   1.084       .  S
N473        O483   1.263       .  A
N473        O484   1.261       .  A
N475        O481   1.260       .  A
N475        O482   1.262   1_545  A
C485        C486   1.388       .  A
C485        C490   1.385       .  A
C485        H495   1.087       .  S
C486        C487   1.401       .  A
C486        C491   1.450       .  S
C487        C488   1.392       .  A
C487        N492   1.427       .  S
C488        C489   1.405       .  A
C488        H493   1.084       .  S
C489        C490   1.422       .  A
C490        N494   1.424       .  S
C491        C496   1.403       .  A
C491        C500   1.391       .  A
N492        O507   1.260       .  A
N492        O508   1.262       .  A
N494        O505   1.262       .  A
N494        O506   1.258       .  A
C496        C497   1.396   1_655  A
C496        N501   1.430       .  S
C497        C498   1.406       .  A
C497        H502   1.084       .  S
C498        C499   1.414   1_455  A
C499        C500   1.385       .  A
C499        N503   1.429       .  S
C500        H504   1.086       .  S
N501        O511   1.261       .  A
N501        O512   1.262       .  A
N503        O509   1.262       .  A
N503        O510   1.259       .  A
C513        C514   1.394       .  A
C513        C518   1.388       .  A
C513        H523   1.087       .  S
C514        C515   1.409       .  A
C514        C519   1.454       .  S
C515        C516   1.391       .  A
C515        N520   1.429       .  S
C516        C517   1.402       .  A
C516        H521   1.087       .  S
C517        C518   1.407       .  A
C518        N522   1.422       .  S
C519        C524   1.410       .  A
C519        C528   1.394       .  A
N520        O535   1.262       .  A
N520        O536   1.262       .  A
N522        O533   1.259       .  A
N522        O534   1.261       .  A
C524        C525   1.392       .  A
C524        N529   1.428       .  S
C525        C526   1.397   1_565  A
C525        H530   1.088       .  S
C526        C527   1.407       .  A
C527        C528   1.381   1_545  A
C527        N531   1.426       .  S
C528        H532   1.088       .  S
N529        O539   1.262       .  A
N529        O540   1.262       .  A
N531        O537   1.262       .  A
N531        O538   1.261       .  A
C541        C542   1.378       .  A
C541        C546   1.383       .  A
C541       C1057   1.465       .  S
C542        C543   1.396       .  A
C542        H547   1.084       .  S
C543        C544   1.433       .  A
C543        C601   1.499       .  S
C544        C545   1.438       .  A
C544        H548   1.082   1_455  S
C545        C546   1.406       .  A
C545        C703   1.502   1_455  S
C546        H549   1.083       .  S
C550        C551   1.378       .  A
C550        C555   1.377       .  A
C550       C1066   1.454       .  S
C551        C552   1.400       .  A
C551        H556   1.084       .  S
C552        C553   1.444       .  A
C552        C588   1.508       .  S
C553        C554   1.440       .  A
C553        H557   1.082       .  S
C554        C555   1.396       .  A
C554        C671   1.502       .  S
C555        H558   1.086       .  S
C559        C560   1.381       .  A
C559        C564   1.385       .  A
C559       C1038   1.471       .  S
C560        C561   1.401       .  A
C560        H565   1.084       .  S
C561        C562   1.437       .  A
C561        C602   1.504       .  S
C562        C563   1.439       .  A
C562        H566   1.082       .  S
C563        C564   1.404       .  A
C563        C797   1.506       .  S
C564        H567   1.084       .  S
C568        C569   1.388       .  A
C568        C573   1.394       .  A
C568       C1029   1.490       .  S
C569        C570   1.406       .  A
C569        H574   1.080       .  S
C570        C571   1.432       .  A
C570        C587   1.505       .  S
C571        C572   1.428       .  A
C571        H575   1.082   1_545  S
C572        C573   1.400       .  A
C572        C766   1.493   1_545  S
C573        H576   1.082       .  S
O577        V585   1.935       .  S
O577        C587   1.268       .  A
O578        V585   1.904       .  S
O578        C588   1.275       .  A
O579        V585   1.903       .  S
O579        C589   1.269       .  A
O580        V585   1.930       .  S
O580        C590   1.265       .  A
O581        V586   1.902       .  S
O581        C590   1.272       .  A
O582        V586   1.933       .  S
O582        C589   1.269       .  A
O583        V586   1.925       .  S
O583        C588   1.263       .  A
O584        V586   1.892       .  S
O584        C587   1.269       .  A
V585        V586   2.081       .  T
C589        C686   1.502       .  S
C590        C773   1.503       .  S
O591        V599   1.928       .  S
O591        C601   1.265       .  A
O592        V599   1.900       .  S
O592        C602   1.271       .  A
O593        V599   1.910       .  S
O593        C603   1.273       .  A
O594        V599   1.937       .  S
O594        C604   1.269       .  A
O595        V600   1.887       .  S
O595        C604   1.267       .  A
O596        V600   1.928       .  S
O596        C603   1.266       .  A
O597        V600   1.934       .  S
O597        C602   1.267       .  A
O598        V600   1.894       .  S
O598        C601   1.271       .  A
V599        V600   2.081       .  T
C603        C741   1.505       .  S
C604        C643   1.503       .  S
C605        C606   1.382   1_554  A
C605       C1010   1.465       .  S
C606        C607   1.407       .  A
C606        H611   1.085       .  S
C607        C608   1.438       .  A
C607        C767   1.507   1_545  S
C608        H612   1.082       .  S
C609        C610   1.402       .  A
C609        C718   1.504       .  S
C610        H613   1.085       .  S
C614        C619   1.395       .  A
C614       C1001   1.488       .  S
C615        C616   1.399       .  A
C615        H620   1.080       .  S
C616        C669   1.502       .  S
C617        C618   1.437       .  A
C617        H621   1.082       .  S
C618        C619   1.403       .  A
C618        C813   1.508   1_545  S
C619        H622   1.084       .  S
C623        C628   1.388       .  A
C623        C982   1.489       .  S
C624        C625   1.401       .  A
C624        H629   1.081       .  S
C625        C799   1.499       .  S
C626        C627   1.429       .  A
C626        H630   1.082       .  S
C627        C628   1.400       .  A
C627        C715   1.503   1_455  S
C628        H631   1.077       .  S
C632        C633   1.389       .  A
C632        C973   1.470       .  S
C633        C634   1.407       .  A
C633        H638   1.084       .  S
C634        C701   1.505   1_455  S
C635        C636   1.432       .  A
C635        H639   1.082       .  S
C636        C637   1.396       .  A
C636        C812   1.494       .  S
C637        H640   1.083       .  S
C641        C642   1.387       .  A
C641        C646   1.397       .  A
C641        C954   1.492       .  S
C642        C643   1.406       .  A
C642        H647   1.079       .  S
C643        C644   1.432       .  A
C644        C645   1.431       .  A
C644        H648   1.082   1_455  S
C645        C646   1.402       .  A
C645        C717   1.505   1_455  S
C646        H649   1.081       .  S
C650        C651   1.383       .  A
C650        C655   1.385       .  A
C650        C945   1.470       .  S
C651        C652   1.402       .  A
C651        H656   1.085       .  S
C652        C653   1.436       .  A
C652        C670   1.500       .  S
C653        C654   1.437       .  A
C653        H657   1.082       .  S
C654        C655   1.402       .  A
C654        C826   1.502       .  S
C655        H658   1.085       .  S
O659        V667   1.905       .  S
O659        C669   1.271       .  A
O660        V667   1.934       .  S
O660        C670   1.268       .  A
O661        V667   1.931       .  S
O661        C671   1.266       .  A
O662        V667   1.903       .  S
O662        C672   1.270       .  A
O663        V668   1.936       .  S
O663        C672   1.269       .  A
O664        V668   1.910       .  S
O664        C671   1.273       .  A
O665        V668   1.902       .  S
O665        C670   1.269       .  A
O666        V668   1.934       .  S
O666        C669   1.267       .  A
V667        V668   2.081       .  T
C672        C721   1.503       .  S
C673        C674   1.388       .  A
C673        C678   1.382       .  A
C673        C926   1.469       .  S
C674        C675   1.408       .  A
C674        H679   1.084       .  S
C675        C676   1.439       .  A
C675        C702   1.510       .  S
C676        C677   1.435       .  A
C676        H680   1.082       .  S
C677        C678   1.395       .  A
C677        C828   1.496       .  S
C678        H681   1.086       .  S
C682        C683   1.374       .  A
C682        C687   1.385       .  A
C682        C917   1.460       .  S
C683        C684   1.399       .  A
C683        H688   1.085       .  S
C684        C685   1.436       .  A
C684        C716   1.498       .  S
C685        C686   1.436       .  A
C685        H689   1.082       .  S
C686        C687   1.405       .  A
C687        H690   1.085       .  S
O691        V699   1.931       .  S
O691        C701   1.267       .  A
O692        V699   1.903       .  S
O692        C702   1.272       .  A
O693        V699   1.899       .  S
O693        C703   1.271       .  A
O694        V699   1.924       .  S
O694        C704   1.264       .  A
O695        V700   1.896       .  S
O695        C704   1.271       .  A
O696        V700   1.928       .  S
O696        C703   1.266       .  A
O697        V700   1.932       .  S
O697        C702   1.267       .  A
O698        V700   1.902       .  S
O698        C701   1.271       .  A
V699        V700   2.081       .  T
C704        C730   1.498       .  S
O705        V713   1.894       .  S
O705        C715   1.270       .  A
O706        V713   1.924       .  S
O706        C716   1.264       .  A
O707        V713   1.936       .  S
O707        C717   1.269       .  A
O708        V713   1.908       .  S
O708        C718   1.272       .  A
O709        V714   1.932       .  S
O709        C718   1.267       .  A
O710        V714   1.902       .  S
O710        C717   1.269       .  A
O711        V714   1.892       .  S
O711        C716   1.271       .  A
O712        V714   1.929       .  S
O712        C715   1.266       .  A
V713        V714   2.081       .  T
C719        C720   1.382       .  A
C719        C898   1.469       .  S
C720        C721   1.403       .  A
C720        H725   1.085       .  S
C721        C722   1.439       .  A
C722        H726   1.082       .  S
C723        C724   1.403   1_556  A
C723        C798   1.511       .  S
C724        H727   1.082   1_554  S
C728        C729   1.385       .  A
C728        C889   1.463       .  S
C729        C730   1.403       .  A
C729        H734   1.084       .  S
C730        C731   1.435       .  A
C731        H735   1.082       .  S
C732        C733   1.396       .  A
C732        C765   1.491       .  S
C733        H736   1.084       .  S
C737        C738   1.383       .  A
C737        C742   1.391       .  A
C737        C861   1.476       .  S
C738        C739   1.401       .  A
C738        H743   1.084       .  S
C739        C740   1.435       .  A
C739        C814   1.502       .  S
C740        C741   1.436       .  A
C740        H744   1.082       .  S
C741        C742   1.406       .  A
C742        H745   1.084       .  S
C746        C747   1.404       .  A
C746        C751   1.389       .  A
C746        C870   1.495       .  S
C747        C748   1.405       .  A
C747        H752   1.082       .  S
C748        C749   1.433       .  A
C748        C768   1.507       .  S
C749        C750   1.431       .  A
C749        H753   1.082       .  S
C750        C751   1.399       .  A
C750        C825   1.508       .  S
C751        H754   1.074       .  S
O755        V763   1.932       .  S
O755        C765   1.267       .  A
O756        V763   1.909       .  S
O756        C766   1.271       .  A
O757        V763   1.941       .  S
O757        C767   1.270       .  A
O758        V763   1.918       .  S
O758        C768   1.273       .  A
O759        V764   1.928       .  S
O759        C768   1.267       .  A
O760        V764   1.896       .  S
O760        C767   1.269       .  A
O761        V764   1.919       .  S
O761        C766   1.264       .  A
O762        V764   1.890       .  S
O762        C765   1.268       .  A
V763        V764   2.082       .  T
C769        C770   1.374       .  A
C769        C774   1.389       .  A
C769        C833   1.470       .  S
C770        C771   1.395       .  A
C770        H775   1.081       .  S
C771        C772   1.434       .  A
C771        C811   1.490   1_545  S
C772        C773   1.437       .  A
C772        H776   1.082   1_545  S
C773        C774   1.402       .  A
C774        H777   1.084       .  S
C778        C779   1.385       .  A
C778        C783   1.380       .  A
C778        C842   1.470       .  S
C779        C780   1.407       .  A
C779        H784   1.082       .  S
C780        C781   1.439       .  A
C780        C800   1.510       .  S
C781        C782   1.436       .  A
C781        H785   1.082       .  S
C782        C783   1.400       .  A
C782        C827   1.498       .  S
C783        H786   1.086       .  S
O787        V795   1.905       .  S
O787        C797   1.273       .  A
O788        V795   1.939       .  S
O788        C798   1.268       .  A
O789        V795   1.923       .  S
O789        C799   1.265       .  A
O790        V795   1.898       .  S
O790        C800   1.270       .  A
O791        V796   1.940       .  S
O791        C800   1.269       .  A
O792        V796   1.906       .  S
O792        C799   1.271       .  A
O793        V796   1.896       .  S
O793        C798   1.271       .  A
O794        V796   1.928       .  S
O794        C797   1.265       .  A
V795        V796   2.080       .  T
O801        V809   1.895       .  S
O801        C811   1.270       .  A
O802        V809   1.927       .  S
O802        C812   1.266       .  A
O803        V809   1.936       .  S
O803        C813   1.268       .  A
O804        V809   1.899       .  S
O804        C814   1.270       .  A
O805        V810   1.936       .  S
O805        C814   1.268       .  A
O806        V810   1.909       .  S
O806        C813   1.272       .  A
O807        V810   1.903       .  S
O807        C812   1.270       .  A
O808        V810   1.928       .  S
O808        C811   1.265       .  A
V809        V810   2.082       .  T
O815        V823   1.936       .  S
O815        C825   1.268       .  A
O816        V823   1.904       .  S
O816        C826   1.272       .  A
O817        V823   1.931       .  S
O817        C827   1.267       .  A
O818        V823   1.909       .  S
O818        C828   1.270       .  A
O819        V824   1.929       .  S
O819        C828   1.267       .  A
O820        V824   1.900       .  S
O820        C827   1.270       .  A
O821        V824   1.929       .  S
O821        C826   1.265       .  A
O822        V824   1.899       .  S
O822        C825   1.271       .  A
V823        V824   2.081       .  T
C829        C830   1.391       .  A
C829        C834   1.385       .  A
C829        H839   1.087       .  S
C830        C831   1.400       .  A
C830        C835   1.447       .  S
C831        C832   1.388       .  A
C831        N836   1.427       .  S
C832        C833   1.404       .  A
C832        H837   1.086       .  S
C833        C834   1.421       .  A
C834        N838   1.431       .  S
C835        C840   1.403       .  A
C835        C844   1.388       .  A
N836        O851   1.262       .  A
N836        O852   1.262       .  A
N838        O849   1.261       .  A
N838        O850   1.262       .  A
C840        C841   1.397       .  A
C840        N845   1.429       .  S
C841        C842   1.407       .  A
C841        H846   1.084       .  S
C842        C843   1.414       .  A
C843        C844   1.385       .  A
C843        N847   1.426       .  S
C844        H848   1.086       .  S
N845        O855   1.262       .  A
N845        O856   1.262       .  A
N847        O853   1.262       .  A
N847        O854   1.261       .  A
C857        C858   1.400       .  A
C857        C862   1.395   1_655  A
C857        H867   1.086       .  S
C858        C859   1.412       .  A
C858        C863   1.471       .  S
C859        C860   1.390       .  A
C859        N864   1.430       .  S
C860        C861   1.399   1_655  A
C860        H865   1.085       .  S
C861        C862   1.414       .  A
C862        N866   1.429       .  S
C863        C868   1.408       .  A
C863        C872   1.391       .  A
N864        O879   1.262       .  A
N864        O880   1.261       .  A
N866        O877   1.262       .  A
N866        O878   1.262       .  A
C868        C869   1.395       .  A
C868        N873   1.428       .  S
C869        C870   1.408       .  A
C869        H874   1.085       .  S
C870        C871   1.426       .  A
C871        C872   1.389       .  A
C871        N875   1.428       .  S
C872        H876   1.087       .  S
N873        O883   1.262       .  A
N873        O884   1.261       .  A
N875        O881   1.259       .  A
N875        O882   1.262       .  A
C885        C886   1.392       .  A
C885        C890   1.386       .  A
C885        H895   1.086       .  S
C886        C891   1.446       .  S
C887        C888   1.389       .  A
C887        N892   1.428       .  S
C888        H893   1.086       .  S
C889        C890   1.417       .  A
C890        N894   1.430       .  S
C891        C896   1.402       .  A
N892        O907   1.262       .  A
N892        O908   1.262       .  A
N894        O905   1.262       .  A
N894        O906   1.260       .  A
C896        C897   1.398       .  A
C896        N901   1.429       .  S
C897        C898   1.405       .  A
C897        H902   1.078       .  S
C899        C900   1.384       .  A
C899        N903   1.425       .  S
C900        H904   1.083       .  S
N901        O911   1.262       .  A
N901        O912   1.262       .  A
N903        O909   1.261       .  A
N903        O910   1.260       .  A
C913        C914   1.407       .  A
C913        C918   1.402   1_565  A
C913        H923   1.083       .  S
C914        C915   1.418       .  A
C914        C919   1.483       .  S
C915        C916   1.390   1_565  A
C915        N920   1.429       .  S
C916        C917   1.390       .  A
C916        H921   1.086       .  S
C917        C918   1.403       .  A
C918        N922   1.428       .  S
C919        C924   1.415       .  A
C919        C928   1.404       .  A
N920        O935   1.262       .  A
N920        O936   1.262       .  A
N922        O933   1.259       .  A
N922        O934   1.262       .  A
C924        C925   1.400       .  A
C924        N929   1.426       .  S
C925        C926   1.397       .  A
C925        H930   1.085       .  S
C926        C927   1.408       .  A
C927        C928   1.390       .  A
C927        N931   1.430       .  S
C928        H932   1.084       .  S
N929        O939   1.262       .  A
N929        O940   1.262       .  A
N931        O937   1.262       .  A
N931        O938   1.262       .  A
C941        C942   1.399       .  A
C941        C946   1.394       .  A
C941        H951   1.087       .  S
C942        C943   1.407       .  A
C942        C947   1.465       .  S
C943        C944   1.392       .  A
C943        N948   1.428       .  S
C944        C945   1.402       .  A
C944        H949   1.087       .  S
C945        C946   1.411       .  A
C946        N950   1.429       .  S
C947        C952   1.404       .  A
C947        C956   1.395       .  A
N948        O963   1.262       .  A
N948        O964   1.261       .  A
N950        O961   1.262       .  A
N950        O962   1.261       .  A
C952        C953   1.390       .  A
C952        N957   1.428       .  S
C953        C954   1.407       .  A
C953        H958   1.085       .  S
C954        C955   1.424       .  A
C955        C956   1.395       .  A
C955        N959   1.428       .  S
C956        H960   1.087       .  S
N957        O967   1.262       .  A
N957        O968   1.260       .  A
N959        O965   1.260       .  A
N959        O966   1.262       .  A
C969        C970   1.397       .  A
C970        C971   1.410       .  A
C970        C975   1.466       .  S
C971        C972   1.391       .  A
C971        N976   1.428   1_455  S
C972        H977   1.085       .  S
C973        C974   1.414       .  A
C974        N978   1.430       .  S
C975        C980   1.408       .  A
N976        O991   1.262       .  A
N976        O992   1.261       .  A
N978        O989   1.262       .  A
N978        O990   1.262       .  A
C980        C981   1.392       .  A
C980        N985   1.429       .  S
C981        H986   1.083       .  S
C982        C983   1.421       .  A
C983        C984   1.391       .  A
C983        N987   1.427       .  S
C984        H988   1.085       .  S
N985        O995   1.262       .  A
N985        O996   1.259       .  A
N987        O993   1.259       .  A
N987        O994   1.262   1_455  A
C997        C998   1.399   1_556  A
C997       C1002   1.392       .  A
C997       H1007   1.085   1_556  S
C998        C999   1.413       .  A
C998       C1003   1.481   1_554  S
C999       C1000   1.390   1_554  A
C999       N1004   1.429   1_545  S
C1000      C1001   1.404       .  A
C1000      H1005   1.085   1_556  S
C1001      C1002   1.420       .  A
C1002      N1006   1.430       .  S
C1003      C1008   1.419       .  A
N1004      O1019   1.262       .  A
N1004      O1020   1.262   1_554  A
N1006      O1017   1.263   1_556  A
N1006      O1018   1.262       .  A
C1008      C1009   1.391       .  A
C1008      N1013   1.430       .  S
C1009      C1010   1.397   1_556  A
C1009      H1014   1.087       .  S
C1011      C1012   1.394       .  A
C1011      N1015   1.427       .  S
C1012      H1016   1.084       .  S
N1013      O1023   1.263       .  A
N1013      O1024   1.261       .  A
N1015      O1021   1.260       .  A
N1015      O1022   1.262   1_545  A
C1025      C1026   1.388       .  A
C1025      C1030   1.386       .  A
C1025      H1035   1.088       .  S
C1026      C1027   1.401       .  A
C1026      C1031   1.453       .  S
C1027      C1028   1.393       .  A
C1027      N1032   1.428       .  S
C1028      C1029   1.407       .  A
C1028      H1033   1.084       .  S
C1029      C1030   1.424       .  A
C1030      N1034   1.425       .  S
C1031      C1036   1.403       .  A
C1031      C1040   1.392       .  A
N1032      O1047   1.261       .  A
N1032      O1048   1.262       .  A
N1034      O1045   1.262       .  A
N1034      O1046   1.258       .  A
C1036      C1037   1.398   1_655  A
C1036      N1041   1.429       .  S
C1037      C1038   1.407       .  A
C1037      H1042   1.084       .  S
C1038      C1039   1.414   1_455  A
C1039      C1040   1.385       .  A
C1039      N1043   1.429       .  S
C1040      H1044   1.086       .  S
N1041      O1051   1.261       .  A
N1041      O1052   1.262       .  A
N1043      O1049   1.262       .  A
N1043      O1050   1.259   1_655  A
C1053      C1054   1.394       .  A
C1053      C1058   1.388       .  A
C1053      H1063   1.087       .  S
C1054      C1055   1.408       .  A
C1054      C1059   1.452       .  S
C1055      C1056   1.389       .  A
C1055      N1060   1.429       .  S
C1056      C1057   1.401       .  A
C1056      H1061   1.087       .  S
C1057      C1058   1.408       .  A
C1058      N1062   1.423       .  S
C1059      C1064   1.409       .  A
C1059      C1068   1.394       .  A
N1060      O1075   1.262       .  A
N1060      O1076   1.262       .  A
N1062      O1073   1.259       .  A
N1062      O1074   1.262       .  A
C1064      C1065   1.391       .  A
C1064      N1069   1.427       .  S
C1065      C1066   1.397   1_565  A
C1065      H1070   1.088       .  S
C1066      C1067   1.405       .  A
C1067      C1068   1.380   1_545  A
C1067      N1071   1.425       .  S
C1068      H1072   1.088       .  S
N1069      O1079   1.262       .  A
N1069      O1080   1.262       .  A
N1071      O1077   1.262       .  A
N1071      O1078   1.261       .  A
