geometry optimzed in LAMMPS
_audit_creation_date              2020-11-30 
_audit_creation_method            'lammps2cif' 
_symmetry_space_group_name_H-M    'P1' 
_symmetry_Int_Tables_number       1 
_symmetry_cell_setting            triclinic 
loop_ 
_symmetry_equiv_pos_as_xyz 
  x,y,z 
_cell_length_a                    32.8871221 
_cell_length_b                    34.39691672857558 
_cell_length_c                    45.13664561771972 
_cell_angle_alpha                 89.82608749420504 
_cell_angle_beta                  89.5759074174047 
_cell_angle_gamma                 81.21005480700894 
loop_ 
_atom_site_label 
_atom_site_type_symbol 
_atom_site_fract_x 
_atom_site_fract_y 
_atom_site_fract_z 
_atom_site_charge 
O1          O  0.19890729  0.34157948  0.60836196    -0.77800
C2          C  0.32797244  0.32727964  0.62531623     0.83300
O3          O  0.25969594  0.22742200  0.54956743    -0.78900
O4          O  0.33872204  0.19956872  0.64261334    -0.80400
O5          O  0.21287114  0.25106800  0.68946325    -0.80200
O6          O  0.16387012  0.30959219  0.64000674    -0.78800
Zn7        Zn  0.25011591  0.30406438  0.59743237     1.55700
O8          O  0.27987957  0.25286405  0.69262660    -0.80200
Cd9        Cd  0.20182386  0.25698911  0.64468933     1.59700
Cd10       Cd  0.25984833  0.20974422  0.59366930     1.59600
O11         O  0.17072477  0.21247999  0.63241130    -0.80200
O12         O  0.25310640  0.25627149  0.62071418    -1.90700
Cd13       Cd  0.30002663  0.25209865  0.64898049     1.59900
O14         O  0.21128277  0.17824478  0.59896367    -0.80200
O15         O  0.33317132  0.29821612  0.64321027    -0.78800
C16         C  0.25373427  0.26145931  0.53760646     0.83700
C17         C  0.16778801  0.34027295  0.62513685     0.83400
O18         O  0.29852468  0.33162467  0.60677704    -0.77800
C19         C  0.24506904  0.25131080  0.70484117     0.84200
O20         O  0.24908955  0.29282269  0.55311702    -0.77900
C21         C  0.17864696  0.18343771  0.61480264     0.84300
C22         C  0.34020221  0.17149709  0.62406691     0.84600
O23         O  0.31346626  0.17188196  0.60363969    -0.80300
C24         C  0.03870416  0.47697181  0.63608533     0.30700
C25         C  0.47008313  0.03487204  0.63303835     0.30700
C26         C  0.49843735  0.46659009  0.62343987    -0.05500
C27         C  0.02521732  0.49511233  0.66642470    -0.06300
C28         C  0.04277554  0.01443791  0.61694377    -0.06100
C29         C  0.46508543  0.49712992  0.62341476    -0.05500
C30         C  0.48664513  0.02056444  0.66378306    -0.06300
C31         C  0.00862618  0.04441645  0.61699048    -0.06100
C32         C  0.43008198  0.47971420  0.62591339    -0.31500
N33         N  0.44064322  0.44009564  0.62588845     0.15000
C34         C  0.48218571  0.43184137  0.62472213    -0.31500
H35         H  0.49959113  0.40260582  0.62618705     0.16900
C36         C  0.47520912  0.02687670  0.69307133    -0.30500
N37         N  0.00837934  0.51191938  0.71286507     0.13700
C38         C  0.03586332  0.48843310  0.69565312    -0.30500
C39         C  0.02364041  0.07966058  0.61509465    -0.30800
N40         N  0.06515874  0.07231179  0.61366327     0.14200
H41         H  0.00569636  0.10863109  0.61725867     0.16800
C42         C  0.07705488  0.03311486  0.61585998    -0.30800
H43         H  0.10848832  0.01962560  0.61981181     0.16800
H44         H  0.06071428  0.46707659  0.70398671     0.16800
H45         H  0.39923026  0.49496540  0.62988005     0.16900
H46         H  0.44831361  0.04584305  0.70139328     0.16800
O47         O  0.03569485  0.08033315  0.93884692    -0.77800
C48         C  0.40843468  0.08664101  0.91580198     0.83300
O49         O  0.99664784  0.47283306  0.99429397    -0.78900
O50         O  0.41475750  0.45912836  0.90516729    -0.80400
O51         O  0.03079539  0.00297242  0.85247802    -0.80200
O52         O  0.07684250  0.04670192  0.90552000    -0.78800
Zn53       Zn  0.98842858  0.05111788  0.94564925     1.55700
O54         O  0.46446725  0.99693739  0.85112122    -0.80200
Cd55       Cd  0.04521197  0.00087059  0.89675082     1.59700
Cd56       Cd  0.99810625  0.45662357  0.95006806     1.59600
O57         O  0.08111913  0.44570581  0.90469114    -0.80200
O58         O  0.99480936  0.00382527  0.92195531    -1.90700
Cd59       Cd  0.44630439  0.00349457  0.89558302     1.59900
O60         O  0.05097940  0.41711979  0.94125894    -0.80200
O61         O  0.40752951  0.05698486  0.89902184    -0.78800
C62         C  0.99399444  0.00780094  0.00478291     0.83700
C63         C  0.06827352  0.07573269  0.92307965     0.83400
O64         O  0.43713397  0.08720701  0.93448922    -0.77800
C65         C  0.99848358  0.99966512  0.83795636     0.84200
O66         O  0.98717270  0.03929106  0.98949022    -0.77900
C67         C  0.07965650  0.41671994  0.92204331     0.84300
C68         C  0.42000969  0.43068558  0.92370727     0.84600
O69         O  0.44955365  0.42670727  0.94211105    -0.80300
C70         C  0.27523106  0.22094168  0.90856564     0.30700
C71         C  0.20959456  0.28043553  0.91000470     0.30700
C72         C  0.28392164  0.26057258  0.92081666    -0.05500
C73         C  0.25599295  0.23362454  0.87846629    -0.06300
C74         C  0.23805761  0.21272807  0.92712856    -0.06100
C75         C  0.25025076  0.29061201  0.92195207    -0.05500
C76         C  0.22182893  0.26316098  0.87908125    -0.06300
C77         C  0.20406706  0.24314727  0.92754838    -0.06100
C78         C  0.26544572  0.32571433  0.92407090    -0.31500
N79         N  0.30706471  0.31820571  0.92353934     0.15000
C80         C  0.31855194  0.27886155  0.92064778    -0.31500
H81         H  0.34978856  0.26498276  0.91619708     0.16900
C82         C  0.21008577  0.27046104  0.85000898    -0.30500
N83         N  0.23752782  0.24792245  0.83212566     0.13700
C84         C  0.26567741  0.22560788  0.84926855    -0.30500
C85         C  0.16958155  0.22483476  0.92958793    -0.30800
N86         N  0.18114483  0.18576585  0.93222727     0.14200
H87         H  0.13825826  0.23826233  0.92514084     0.16800
C88         C  0.22249020  0.17785492  0.93026227    -0.30800
H89         H  0.23953505  0.14857154  0.92781104     0.16800
H90         H  0.29189216  0.20569409  0.84094676     0.16800
H91         H  0.24746973  0.35478468  0.92418009     0.16900
H92         H  0.18466366  0.29164777  0.84225678     0.16800
O93         O  0.04720105  0.42649593  0.10735038    -0.77800
C94         C  0.41862798  0.44259928  0.12478890     0.83300
O95         O  0.48714488  0.04419041  0.04931754    -0.78900
O96         O  0.40524702  0.06856223  0.14043417    -0.80400
O97         O  0.03290608  0.01574834  0.18803046    -0.80200
O98         O  0.08272430  0.45734894  0.13924881    -0.78800
Zn99       Zn  0.49670428  0.46532271  0.09782238     1.55700
O100        O  0.46507021  0.01782042  0.19051922    -0.80200
Cd101      Cd  0.04555874  0.01170745  0.14279748     1.59700
Cd102      Cd  0.48617297  0.06073911  0.09323326     1.59600
O103        O  0.07591283  0.05849242  0.13053255    -0.80200
O104        O  0.49368316  0.01343364  0.11961712    -1.90700
Cd105      Cd  0.44589639  0.01757904  0.14736842     1.59900
O106        O  0.03337726  0.09318206  0.09862328    -0.80200
O107        O  0.41288053  0.47191830  0.14226447    -0.78800
C108        C  0.49286245  0.01036969  0.03722269     0.83700
C109        C  0.07807303  0.42719337  0.12405026     0.83400
O110        O  0.44889460  0.43756922  0.10676396    -0.77800
C111        C  0.49967834  0.01725330  0.20306808     0.84200
O112        O  0.49594264  0.47766048  0.05414152    -0.77900
C113        C  0.06652128  0.08827047  0.11350446     0.84300
C114        C  0.40369664  0.09679079  0.12196448     0.84600
O115        O  0.43160093  0.09753915  0.10229125    -0.80300
C116        C  0.20922565  0.29326532  0.13252141     0.30700
C117        C  0.27302478  0.23239557  0.13141888     0.30700
C118        C  0.25083140  0.30333226  0.12161732    -0.05500
C119        C  0.22133960  0.27435962  0.16286413    -0.06300
C120        C  0.20269422  0.25802755  0.11329501    -0.06100
C121        C  0.28351245  0.27210221  0.12088298    -0.05500
C122        C  0.25406241  0.24317383  0.16233350    -0.06300
C123        C  0.23562250  0.22685594  0.11271939    -0.06100
C124        C  0.31916134  0.28833258  0.12371191    -0.31500
N125        N  0.30935117  0.32789062  0.12505589     0.15000
C126        C  0.26801619  0.33716443  0.12536492    -0.31500
H127        H  0.25158348  0.36633874  0.12971841     0.16900
C128        C  0.26710389  0.23692737  0.19125004    -0.30500
N129        N  0.24247556  0.26208275  0.20919729     0.13700
C130        C  0.21529391  0.28570006  0.19204491    -0.30500
C131        C  0.21886970  0.19295695  0.10845892    -0.30800
N132        N  0.17756282  0.20205400  0.10615315     0.14200
H133        H  0.23513515  0.16329846  0.11085797     0.16800
C134        C  0.16732461  0.24141409  0.10940415    -0.30800
H135        H  0.13618023  0.25613271  0.11299977     0.16800
H136        H  0.19444232  0.31082877  0.20018072     0.16800
H137        H  0.34981234  0.27237488  0.12695129     0.16900
H138        H  0.29341518  0.21657301  0.19869160     0.16800
C139        C  0.46848561  0.05001915  0.40735445     0.30700
C140        C  0.03267890  0.48912009  0.40950177     0.30700
C141        C  0.45908342  0.01111212  0.42077149    -0.05500
C142        C  0.48686896  0.03609452  0.37704945    -0.06300
C143        C  0.00635129  0.05796878  0.42483060    -0.06100
C144        C  0.49249032  0.47981248  0.42341298    -0.05500
C145        C  0.02038538  0.00593953  0.37772288    -0.06300
C146        C  0.03968021  0.02714289  0.42513932    -0.06100
C147        C  0.47653883  0.44501315  0.42474965    -0.31500
N148        N  0.43503726  0.45324911  0.42477543     0.15000
C149        C  0.42414063  0.49264281  0.42265160    -0.31500
H150        H  0.39334141  0.00730043  0.41494265     0.16900
C151        C  0.03084861  0.49860803  0.34961990    -0.30500
N152        N  0.50590469  0.02103972  0.33059760     0.13700
C153        C  0.47787981  0.04406855  0.34775867    -0.30500
C154        C  0.07471951  0.04460168  0.42667887    -0.30800
N155        N  0.06406405  0.08389017  0.42938298     0.14200
H156        H  0.10580551  0.03023583  0.42229062     0.16800
C157        C  0.02264912  0.09241525  0.42770005    -0.30800
H158        H  0.00586573  0.12188772  0.42571947     0.16800
H159        H  0.45227348  0.06457768  0.33943968     0.16800
H160        H  0.49386080  0.41568739  0.42358394     0.16900
H161        H  0.05642794  0.47764650  0.34161077     0.16800
O162        O  0.20876839  0.19035319  0.43931622    -0.77800
C163        C  0.33766967  0.18604515  0.41652412     0.83300
O164        O  0.24493606  0.29828434  0.49280355    -0.78900
O165        O  0.32697991  0.31481921  0.40287518    -0.80400
O166        O  0.21280805  0.26805707  0.35183770    -0.80200
O167        O  0.16838621  0.22583511  0.40675482    -0.78800
Zn168      Zn  0.25588904  0.22046908  0.44580588     1.55700
O169        O  0.28025690  0.26810663  0.34976570    -0.80200
Cd170      Cd  0.19940095  0.27136325  0.39664846     1.59700
Cd171      Cd  0.24388824  0.31434471  0.44830099     1.59600
O172        O  0.16090594  0.32364493  0.40340098    -0.80200
O173        O  0.24950078  0.26766492  0.42155269    -1.90700
Cd174      Cd  0.29763675  0.26705174  0.39410991     1.59900
O175        O  0.19090207  0.35308094  0.43918892    -0.80200
O176        O  0.33903694  0.21582100  0.39985436    -0.78800
C177        C  0.25201178  0.26444916  0.50498981     0.83700
C178        C  0.17639798  0.19592434  0.42354507     0.83400
O179        O  0.30794457  0.18493830  0.43460349    -0.77800
C180        C  0.24590481  0.26751355  0.33693100     0.84200
O181        O  0.25752698  0.23297120  0.48966683    -0.77900
C182        C  0.16191889  0.35270774  0.42065007     0.84300
C183        C  0.32149262  0.34212183  0.42225091     0.84600
O184        O  0.29207303  0.34483785  0.44099151    -0.80300
C185        C  0.09221190  0.11184326  0.42805763    -0.04800
C186        C  0.08399576  0.14464553  0.40939072    -0.32200
C187        C  0.11132172  0.17181262  0.40729835     0.37100
C188        C  0.14735304  0.16699579  0.42469058    -0.05100
C189        C  0.15562797  0.13383153  0.44324009    -0.32100
C190        C  0.12850382  0.10630548  0.44484631     0.37000
H191        H  0.05665616  0.14876489  0.39581164     0.17300
O192        O  0.10225590  0.20292224  0.38815153    -0.59600
H193        H  0.18317685  0.12910084  0.45660377     0.17400
O194        O  0.13759964  0.07413245  0.46297489    -0.59700
H195        H  0.12711794  0.08313186  0.48284133     0.44300
H196        H  0.11499470  0.19348238  0.36898142     0.44300
C197        C  0.12893168  0.38719246  0.41840435    -0.04800
C198        C  0.10067315  0.38929275  0.39506693    -0.32200
C199        C  0.06923829  0.42141980  0.39210846     0.37100
C200        C  0.06737135  0.45407856  0.41132819    -0.05100
C201        C  0.09464816  0.45090849  0.43546877    -0.32100
C202        C  0.12489146  0.41806594  0.43916316     0.37000
H203        H  0.10218375  0.36548118  0.37924842     0.17300
O204        O  0.04000253  0.42005502  0.37075064    -0.59600
H205        H  0.09183779  0.47326496  0.45245834     0.17400
O206        O  0.14975227  0.41632672  0.46354712    -0.59700
H207        H  0.13479836  0.40397612  0.47929094     0.44300
H208        H  0.02617358  0.39722818  0.37581518     0.44300
C209        C  0.43350800  0.08504834  0.40823178    -0.04800
C210        C  0.40126577  0.08545375  0.42899179    -0.32200
C211        C  0.36977431  0.11739180  0.43150092     0.37100
C212        C  0.37091135  0.15158194  0.41440617    -0.05100
C213        C  0.40427079  0.15248553  0.39490410    -0.32100
C214        C  0.43529918  0.11980877  0.39167757     0.37000
H215        H  0.40058204  0.06146389  0.44436488     0.17300
O216        O  0.33860136  0.11495854  0.45146398    -0.59600
H217        H  0.40661116  0.17874593  0.38209502     0.17400
O218        O  0.46863326  0.12313362  0.37383801    -0.59700
H219        H  0.45745391  0.13056190  0.35391259     0.44300
H220        H  0.31895752  0.10078574  0.44090830     0.44300
C221        C  0.40694470  0.42525802  0.42404878    -0.04800
C222        C  0.37308983  0.42984222  0.44338285    -0.32200
C223        C  0.34495676  0.40323670  0.44315624     0.37100
C224        C  0.35031579  0.37133518  0.42304719    -0.05100
C225        C  0.38404569  0.36732810  0.40336325    -0.30500
C226        C  0.41235879  0.39378808  0.40390672     0.37000
H227        H  0.36876498  0.45406905  0.45894298     0.17300
O228        O  0.31277183  0.40859253  0.46297492    -0.59600
H229        H  0.38872079  0.34354181  0.38743623     0.17400
O230        O  0.44405036  0.38985424  0.38369679    -0.59700
H231        H  0.46281574  0.36582483  0.38974364     0.44300
H232        H  0.29043447  0.42608456  0.45273357     0.44300
C233        C  0.24386436  0.26326357  0.24107345    -0.04800
C234        C  0.20713996  0.26577006  0.25740330    -0.32200
C235        C  0.20717803  0.26675359  0.28841542     0.37100
C236        C  0.24458587  0.26591710  0.30390676    -0.05100
C237        C  0.28140697  0.26325252  0.28737821    -0.32100
C238        C  0.28125051  0.26187031  0.25631818     0.37000
H239        H  0.17820466  0.26646935  0.24594835     0.17300
O240        O  0.17028073  0.26908288  0.30317253    -0.59600
H241        H  0.31060462  0.26238138  0.29849996     0.17400
O242        O  0.31772664  0.25985534  0.24108161    -0.59700
H243        H  0.32358250  0.28728225  0.24029118     0.44300
H244        H  0.16571500  0.24143255  0.30582871     0.44300
C245        C  0.50503430  0.01935754  0.29870496    -0.04800
C246        C  0.46553877  0.51915153  0.28583720    -0.32200
C247        C  0.46365407  0.51816475  0.25494935     0.37100
C248        C  0.50115771  0.01810310  0.23599957    -0.05100
C249        C  0.53931492  0.01388955  0.25052109    -0.32100
C250        C  0.54144047  0.01446543  0.28153975     0.37000
H251        H  0.43764892  0.51876179  0.29867639     0.17300
O252        O  0.42618216  0.51739060  0.24199981    -0.59600
H253        H  0.56774410  0.01017049  0.23785227     0.17400
O254        O  0.57922374  0.01072244  0.29477834    -0.59700
H255        H  0.58699681  0.03745945  0.29428885     0.44300
H256        H  0.41249938  0.54516719  0.24177658     0.44300
C257        C  0.09468256  0.11819591  0.11120397    -0.04800
C258        C  0.12602112  0.11813032  0.13221556    -0.32200
C259        C  0.15288998  0.14589375  0.13091272     0.37100
C260        C  0.14927169  0.17420333  0.10813937    -0.05100
C261        C  0.11764818  0.17510556  0.08744114    -0.32100
C262        C  0.09062238  0.14727787  0.08863951     0.37000
H263        H  0.12953004  0.09673167  0.15002721     0.17300
O264        O  0.18232274  0.14549693  0.15231734    -0.59600
H265        H  0.11446580  0.19703751  0.06999440     0.17400
O266        O  0.06061734  0.14878055  0.06753476    -0.59700
H267        H  0.07349088  0.13226156  0.05099455     0.44300
H268        H  0.17020809  0.16523099  0.16715103     0.44300
C269        C  0.17359502  0.32751201  0.13057938    -0.04800
C270        C  0.17477694  0.35665150  0.10859189    -0.32200
C271        C  0.14397682  0.38920437  0.10657544     0.37100
C272        C  0.10979213  0.39230881  0.12546431    -0.05100
C273        C  0.10591647  0.36175529  0.14541559    -0.32100
C274        C  0.13735712  0.32921407  0.14794496     0.37000
H275        H  0.19975166  0.35448839  0.09266821     0.17300
O276        O  0.14714122  0.41754472  0.08559627    -0.59600
H277        H  0.07849414  0.36315459  0.15907332     0.17400
O278        O  0.13141473  0.29832490  0.16600101    -0.59700
H279        H  0.12485241  0.30965283  0.18597058     0.44300
H280        H  0.16282069  0.43639443  0.09525799     0.44300
C281        C  0.30760554  0.19739053  0.12886768    -0.04800
C282        C  0.30929985  0.16597003  0.14903341    -0.32200
C283        C  0.33976304  0.13296975  0.14694470     0.37100
C284        C  0.36915729  0.13008671  0.12379360    -0.05100
C285        C  0.36557044  0.15990147  0.10221771    -0.32100
C286        C  0.33487476  0.19289010  0.10426276     0.37000
H287        H  0.28624181  0.16617669  0.16622920     0.17300
O288        O  0.34062823  0.10401962  0.16800564    -0.59600
H289        H  0.38651975  0.15769272  0.08344974     0.17400
O290        O  0.33062212  0.21957087  0.08137430    -0.59700
H291        H  0.35646678  0.23114456  0.08086169     0.44300
H292        H  0.31901883  0.08844125  0.16207996     0.44300
C293        C  0.39008824  0.41318559  0.12552266    -0.04800
C294        C  0.39488558  0.38271930  0.10446121    -0.32200
C295        C  0.36914090  0.35401904  0.10477636     0.37100
C296        C  0.33767696  0.35555189  0.12608577    -0.05100
C297        C  0.33242336  0.38589521  0.14704449    -0.32100
C298        C  0.35858445  0.41436486  0.14713812     0.37000
H299        H  0.41849256  0.38114843  0.08745483     0.17300
O300        O  0.37328075  0.32586449  0.08305971    -0.59600
H301        H  0.30805182  0.38732077  0.16346155     0.17400
O302        O  0.35277220  0.44323805  0.16831445    -0.59700
H303        H  0.36863344  0.43185777  0.18570824     0.44300
H304        H  0.39578183  0.30530595  0.08983473     0.44300
C305        C  0.09701034  0.10458374  0.92547491    -0.04800
C306        C  0.12493060  0.10825582  0.90225752    -0.32200
C307        C  0.15272362  0.13503614  0.90427057     0.37100
C308        C  0.15355528  0.15773928  0.92998769    -0.05100
C309        C  0.12550744  0.15472156  0.95293912    -0.32100
C310        C  0.09721232  0.12848632  0.95086725     0.37000
H311        H  0.12480463  0.09080224  0.88232474     0.17300
O312        O  0.17838794  0.13949336  0.88083159    -0.59600
H313        H  0.12578252  0.17274817  0.97255530     0.17400
O314        O  0.07098199  0.12548515  0.97425092    -0.59700
H315        H  0.04757966  0.14697076  0.97126006     0.44300
H316        H  0.16403791  0.16204947  0.86931715     0.44300
C317        C  0.37530098  0.12118917  0.91363742    -0.04800
C318        C  0.34291817  0.12057481  0.89364692    -0.32200
C319        C  0.31046609  0.15207914  0.89178216     0.37100
C320        C  0.31088658  0.18643765  0.90901033    -0.05100
C321        C  0.34259091  0.18603490  0.92985024    -0.32100
C322        C  0.37466595  0.15447103  0.93194996     0.37000
H323        H  0.34200935  0.09508623  0.87976606     0.17300
O324        O  0.27819936  0.14854799  0.87336364    -0.59600
H325        H  0.34223720  0.20972584  0.94554867     0.17400
O326        O  0.40514392  0.15671982  0.95217958    -0.59700
H327        H  0.39504275  0.14639421  0.97094158     0.44300
H328        H  0.26586907  0.12581843  0.88086861     0.44300
C329        C  0.17446018  0.31525610  0.91210625    -0.04800
C330        C  0.14482412  0.31693149  0.93504474    -0.32200
C331        C  0.11360671  0.34908148  0.93832752     0.37100
C332        C  0.11210952  0.38175241  0.91928443    -0.05100
C333        C  0.14272048  0.38121162  0.89731321    -0.32100
C334        C  0.17364783  0.34865969  0.89366468     0.37000
H335        H  0.14629550  0.29409255  0.95161473     0.17300
O336        O  0.08502768  0.34815022  0.96051751    -0.59600
H337        H  0.14315794  0.40638911  0.88290505     0.17400
O338        O  0.20472005  0.35097479  0.87351106    -0.59700
H339        H  0.19121956  0.35775289  0.85420188     0.44300
H340        H  0.09736694  0.35835789  0.97831843     0.44300
C341        C  0.33474062  0.34680179  0.92363923    -0.04800
C342        C  0.37072901  0.33958726  0.94048234    -0.32200
C343        C  0.39881784  0.36628431  0.94065217     0.37100
C344        C  0.39103941  0.40141402  0.92385619    -0.05100
C345        C  0.35508949  0.40830832  0.90671550    -0.32100
C346        C  0.32702436  0.38147621  0.90659589     0.37000
H347        H  0.37704142  0.31298212  0.95363785     0.17300
O348        O  0.43377166  0.35748950  0.95728822    -0.59600
H349        H  0.34857111  0.43460677  0.89324305     0.17400
O350        O  0.29336331  0.38833536  0.88849146    -0.59700
H351        H  0.27469352  0.41034800  0.89782499     0.44300
H352        H  0.45354029  0.34029203  0.94451468     0.44300
C353        C  0.00639304  0.51057259  0.74469912    -0.04800
C354        C  0.53743516  0.00599155  0.75840010    -0.32200
C355        C  0.53693019  0.00494825  0.78941808     0.37100
C356        C  0.00052456  0.99966295  0.80493702    -0.05100
C357        C  0.96712072  0.50971407  0.79052332    -0.32100
C358        C  0.96845769  0.51152098  0.75960906     0.37000
H359        H  0.56536640  0.01047245  0.74688072     0.17300
O360        O  0.57186642  0.01054744  0.80419974    -0.59600
H361        H  0.93747561  0.51064718  0.80133827     0.17400
O362        O  0.93245055  0.51337945  0.74419244    -0.59700
H363        H  0.93140942  0.48601726  0.73773394     0.44300
H364        H  0.58939944  0.98439333  0.80450362     0.44300
C365        C  0.24218168  0.25018800  0.73772443    -0.04800
C366        C  0.27705187  0.25435674  0.75453771    -0.32200
C367        C  0.27575256  0.25349990  0.78547183     0.37100
C368        C  0.23891658  0.24942603  0.80035018    -0.05100
C369        C  0.20381185  0.24573995  0.78384708    -0.32100
C370        C  0.20533685  0.24536214  0.75279326     0.37000
H371        H  0.30567780  0.25829500  0.74375404     0.17300
O372        O  0.31028437  0.25821678  0.80108565    -0.59600
H373        H  0.17546541  0.24208050  0.79514628     0.17400
O374        O  0.17069193  0.24001278  0.73756252    -0.59700
H375        H  0.17282514  0.21113499  0.73502702     0.44300
H376        H  0.32916921  0.23297297  0.79892074     0.44300
C377        C  0.37348810  0.13712408  0.62655776    -0.04800
C378        C  0.37930055  0.10901171  0.60381752    -0.32200
C379        C  0.40999903  0.07609035  0.60563087     0.37100
C380        C  0.43452300  0.06919396  0.63134075    -0.05100
C381        C  0.43036154  0.09881980  0.65307063    -0.32100
C382        C  0.39986163  0.13183997  0.65126215     0.37000
H383        H  0.36058144  0.11292248  0.58407024     0.17300
O384        O  0.41644450  0.05161237  0.58158198    -0.59600
H385        H  0.45180895  0.09755547  0.67114819     0.17400
O386        O  0.39696287  0.15912639  0.67357932    -0.59700
H387        H  0.37810403  0.15010878  0.68846855     0.44300
H388        H  0.43876574  0.06109486  0.57002740     0.44300
C389        C  0.13554021  0.37523495  0.62791205    -0.04800
C390        C  0.10512984  0.37621742  0.65005514    -0.32200
C391        C  0.07447541  0.40903816  0.65360374     0.37100
C392        C  0.07380560  0.44211417  0.63479588    -0.05100
C393        C  0.10337267  0.43992691  0.61179098    -0.32100
C394        C  0.13416032  0.40752717  0.60857260     0.37000
H395        H  0.10475776  0.35126344  0.66470389     0.17300
O396        O  0.04358062  0.40727670  0.67400949    -0.59600
H397        H  0.10209848  0.46257287  0.59506420     0.17400
O398        O  0.16212067  0.40758880  0.58586665    -0.59700
H399        H  0.14979043  0.39567372  0.56879089     0.44300
H400        H  0.05725928  0.40037282  0.69324017     0.44300
C401        C  0.35653303  0.35691633  0.62624037    -0.04800
C402        C  0.39260660  0.34987563  0.64332156    -0.32200
C403        C  0.42025307  0.37721619  0.64400260     0.37100
C404        C  0.41222830  0.41214166  0.62717567    -0.05100
C405        C  0.37569172  0.41969947  0.61100277    -0.32100
C406        C  0.34784018  0.39288252  0.61066198     0.37000
H407        H  0.39950060  0.32313359  0.65626446     0.17300
O408        O  0.45368318  0.37060355  0.66236624    -0.59600
H409        H  0.36885799  0.44657194  0.59822235     0.17400
O410        O  0.31213022  0.40240953  0.59499238    -0.59700
H411        H  0.29255258  0.41786508  0.60892693     0.44300
H412        H  0.47237522  0.34825327  0.65346519     0.44300
C413        C  0.09271190  0.10079348  0.61349651    -0.04800
C414        C  0.12666682  0.09576273  0.59418358    -0.32200
C415        C  0.15472282  0.12247853  0.59392236     0.37100
C416        C  0.14911899  0.15492346  0.61343954    -0.05100
C417        C  0.11506972  0.15955731  0.63292315    -0.32100
C418        C  0.08714872  0.13275818  0.63314120     0.37000
H419        H  0.13134936  0.07088739  0.57921946     0.17300
O420        O  0.18788895  0.11591819  0.57501357    -0.59600
H421        H  0.11034026  0.18362029  0.64861333     0.17400
O422        O  0.05631071  0.13636512  0.65404757    -0.59700
H423        H  0.03661613  0.15979948  0.64806296     0.44300
H424        H  0.17789295  0.12807085  0.55594943     0.44300
O425        O  0.19946135  0.84269117  0.60519505    -0.77800
C426        C  0.32908292  0.82632765  0.61729739     0.83300
O427        O  0.26031250  0.72557528  0.54799848    -0.78900
O428        O  0.34167024  0.70138261  0.64054929    -0.80400
O429        O  0.21756352  0.75599346  0.68877775    -0.80200
O430        O  0.16558845  0.81113179  0.63781260    -0.78800
Zn431      Zn  0.24943890  0.80361896  0.59431023     1.55700
O432        O  0.28478508  0.75729556  0.69008020    -0.80200
Cd433      Cd  0.20438279  0.75877799  0.64391955     1.59700
Cd434      Cd  0.26232230  0.70935470  0.59255010     1.59600
O435        O  0.17442959  0.71245235  0.63360730    -0.80200
O436        O  0.25456240  0.75673731  0.61874469    -1.90700
Cd437      Cd  0.30237142  0.75368312  0.64588427     1.59900
O438        O  0.21473448  0.67770107  0.60011365    -0.80200
O439        O  0.33466940  0.79881622  0.63647658    -0.78800
C440        C  0.25244486  0.75940063  0.53582114     0.83700
C441        C  0.16877920  0.84160175  0.62238360     0.83400
O442        O  0.29846280  0.83034281  0.59990923    -0.77800
C443        C  0.25047605  0.75681450  0.70330482     0.84200
O444        O  0.24651678  0.79090424  0.55100512    -0.77900
C445        C  0.18262434  0.68281613  0.61650575     0.84300
C446        C  0.34388155  0.67294150  0.62231700     0.84600
O447        O  0.31708684  0.67241828  0.60202333    -0.80300
C448        C  0.03638097  0.97610609  0.63271429     0.30700
C449        C  0.47388648  0.53686377  0.63496590     0.30700
C450        C  0.49704134  0.96615961  0.61838156    -0.05500
C451        C  0.02130860  0.99154606  0.66354684    -0.06300
C452        C  0.04572901  0.51382442  0.61847156    -0.06100
C453        C  0.46304973  0.99612021  0.61870588    -0.05500
C454        C  0.49156484  0.52525382  0.66592110    -0.06300
C455        C  0.01200265  0.54423284  0.61736668    -0.06100
C456        C  0.42849266  0.97804133  0.61722860    -0.31500
N457        N  0.44039696  0.93879111  0.61488507     0.15000
C458        C  0.48188362  0.93109847  0.61610301    -0.31500
H459        H  0.49944647  0.90189877  0.61765753     0.16900
C460        C  0.48132346  0.53449921  0.69495361    -0.30500
N461        N  0.00313683  0.00444159  0.71039496     0.13700
C462        C  0.03189168  0.98343770  0.69266287    -0.30500
C463        C  0.02778140  0.57906950  0.61497623    -0.30800
N464        N  0.06927303  0.57138548  0.61509527     0.14200
H465        H  0.00998335  0.60819101  0.61596326     0.16800
C466        C  0.08036215  0.53218019  0.61810186    -0.30800
H467        H  0.11130426  0.51842986  0.62340135     0.16800
H468        H  0.05796119  0.96313856  0.70053869     0.16800
H469        H  0.39700305  0.99202394  0.62054924     0.16900
H470        H  0.45542180  0.55528068  0.70265307     0.16800
O471        O  0.03758298  0.57979448  0.94152212    -0.77800
C472        C  0.40919397  0.58840918  0.91861315     0.83300
O473        O  0.00153952  0.97404623  0.99273160    -0.78900
O474        O  0.41354933  0.95903289  0.90876381    -0.80400
O475        O  0.03291508  0.50571056  0.85532157    -0.80200
O476        O  0.07979859  0.54266471  0.91079588    -0.78800
Zn477      Zn  0.98916807  0.55125690  0.94787656     1.55700
O478        O  0.46589863  0.50340009  0.85260910    -0.80200
Cd479      Cd  0.04556620  0.49973688  0.89970099     1.59700
Cd480      Cd  0.00052320  0.95740962  0.94894071     1.59600
O481        O  0.08405134  0.94875093  0.90357054    -0.80200
O482        O  0.99440787  0.50395268  0.92397081    -1.90700
Cd483      Cd  0.44664500  0.50581821  0.89662957     1.59900
O484        O  0.05328736  0.91876519  0.93911788    -0.80200
O485        O  0.40772525  0.55887896  0.90180535    -0.78800
C486        C  0.99177673  0.50663474  0.00649403     0.83700
C487        C  0.07124694  0.57308649  0.92699789     0.83400
O488        O  0.43819311  0.58866168  0.93713283    -0.77800
C489        C  0.00057260  0.50511173  0.84017745     0.84200
O490        O  0.98759519  0.53831165  0.99137877    -0.77900
C491        C  0.08274736  0.91946196  0.92071307     0.84300
C492        C  0.41934366  0.93203360  0.92849117     0.84600
O493        O  0.45088840  0.92785832  0.94504704    -0.80300
C494        C  0.27937550  0.72499155  0.90855132     0.30700
C495        C  0.21279290  0.78352352  0.90899837     0.30700
C496        C  0.28519952  0.76272960  0.92521811    -0.05500
C497        C  0.26475336  0.74160957  0.87797250    -0.06300
C498        C  0.23983009  0.71442256  0.92268650    -0.06100
C499        C  0.25090992  0.79226850  0.92574723    -0.05500
C500        C  0.23005827  0.77047051  0.87813485    -0.06300
C501        C  0.20554222  0.74400015  0.92249764    -0.06100
C502        C  0.26486948  0.82717824  0.93170039    -0.31500
N503        N  0.30632010  0.82027383  0.93397032     0.15000
C504        C  0.31910749  0.78143578  0.92929161    -0.31500
H505        H  0.35091121  0.76859893  0.92571922     0.16900
C506        C  0.21989039  0.77882118  0.84892555    -0.30500
N507        N  0.24872082  0.75770385  0.83120693     0.13700
C508        C  0.27642533  0.73533071  0.84877733    -0.30500
C509        C  0.17154811  0.72485983  0.92306093    -0.30800
N510        N  0.18389328  0.68559408  0.92590698     0.14200
H511        H  0.14008811  0.73819995  0.91902769     0.16800
C512        C  0.22554839  0.67897270  0.92544259    -0.30800
H513        H  0.24435104  0.65032185  0.92539926     0.16800
H514        H  0.30270306  0.71528048  0.84077896     0.16800
H515        H  0.24665055  0.85614887  0.93139467     0.16900
H516        H  0.19350119  0.79874470  0.84106540     0.16800
O517        O  0.04511319  0.92598172  0.10667602    -0.77800
C518        C  0.41841133  0.94271971  0.12411499     0.83300
O519        O  0.48710221  0.54314551  0.05101206    -0.78900
O520        O  0.40680588  0.56967178  0.14269499    -0.80400
O521        O  0.03213632  0.51577065  0.19003801    -0.80200
O522        O  0.08270600  0.95763295  0.13654584    -0.78800
Zn523      Zn  0.49581140  0.96595809  0.09618348     1.55700
O524        O  0.46461214  0.51573064  0.19198399    -0.80200
Cd525      Cd  0.04533145  0.51110595  0.14507618     1.59700
Cd526      Cd  0.48681714  0.56027685  0.09492552     1.59600
O527        O  0.07627833  0.55723396  0.13337611    -0.80200
O528        O  0.49400103  0.51297824  0.12124012    -1.90700
Cd529      Cd  0.44591354  0.51741368  0.14861491     1.59900
O530        O  0.03465327  0.59190038  0.10090063    -0.80200
O531        O  0.41414607  0.97086022  0.14264841    -0.78800
C532        C  0.49148122  0.50927794  0.03893626     0.83700
C533        C  0.07679471  0.92685087  0.12252569     0.83400
O534        O  0.44702304  0.93907577  0.10469832    -0.77800
C535        C  0.49885847  0.51625505  0.20480510     0.84200
O536        O  0.49736810  0.97869016  0.05242083    -0.77900
C537        C  0.06742844  0.58688683  0.11623852     0.84300
C538        C  0.40520658  0.59783986  0.12417007     0.84600
O539        O  0.43259510  0.59799738  0.10402519    -0.80300
C540        C  0.20861969  0.79309947  0.13209634     0.30700
C541        C  0.27304010  0.73267055  0.13268903     0.30700
C542        C  0.25037918  0.80313109  0.12125540    -0.05500
C543        C  0.22028436  0.77538869  0.16289352    -0.06300
C544        C  0.20292263  0.75685689  0.11362327    -0.06100
C545        C  0.28321535  0.77205578  0.12137668    -0.05500
C546        C  0.25325237  0.74439865  0.16312676    -0.06300
C547        C  0.23624371  0.72591232  0.11400979    -0.06100
C548        C  0.31878775  0.78837932  0.12385305    -0.31500
N549        N  0.30897632  0.82795363  0.12433516     0.15000
C550        C  0.26757589  0.83713199  0.12440933    -0.31500
H551        H  0.25110515  0.86640036  0.12832368     0.16900
C552        C  0.26590952  0.73927966  0.19206193    -0.30500
N553        N  0.24111825  0.76493640  0.20948653     0.13700
C554        C  0.21374690  0.78770979  0.19184705    -0.30500
C555        C  0.22005356  0.69147119  0.11146823    -0.30800
N556        N  0.17879571  0.69993342  0.10924296     0.14200
H557        H  0.23675845  0.66216600  0.11483509     0.16800
C558        C  0.16798060  0.73939910  0.11063194    -0.30800
H559        H  0.13661901  0.75393982  0.11339223     0.16800
H560        H  0.19240824  0.81287557  0.19938643     0.16800
H561        H  0.34934251  0.77250351  0.12763412     0.16900
H562        H  0.29219309  0.71927192  0.19986037     0.16800
C563        C  0.46796085  0.54931400  0.40925858     0.30700
C564        C  0.03290167  0.98958775  0.40878984     0.30700
C565        C  0.45908667  0.51043673  0.42297056    -0.05500
C566        C  0.48530115  0.53542622  0.37865875    -0.06300
C567        C  0.00623834  0.55721350  0.42617192    -0.06100
C568        C  0.49233127  0.98061166  0.42211046    -0.05500
C569        C  0.01915954  0.50563007  0.37875364    -0.06300
C570        C  0.03976207  0.52670323  0.42577762    -0.06100
C571        C  0.47649080  0.94585873  0.42432797    -0.31500
N572        N  0.43498088  0.95389999  0.42341665     0.15000
C573        C  0.42418294  0.99320931  0.42014792    -0.31500
H574        H  0.39313356  0.50690283  0.41815384     0.16900
C575        C  0.03227648  0.99793902  0.34870275    -0.30500
N576        N  0.50368398  0.52153591  0.33203862     0.13700
C577        C  0.47543567  0.54365688  0.34951545    -0.30500
C578        C  0.07455581  0.54463795  0.42704271    -0.30800
N579        N  0.06345509  0.58391535  0.43038067     0.14200
H580        H  0.10559678  0.53056691  0.42214285     0.16800
C581        C  0.02194374  0.59181022  0.42960500    -0.30800
H582        H  0.00448748  0.62108463  0.42863595     0.16800
H583        H  0.44939386  0.56388599  0.34148086     0.16800
H584        H  0.49404596  0.91661159  0.42459729     0.16900
H585        H  0.05720694  0.97588041  0.34123462     0.16800
O586        O  0.20755530  0.69094256  0.43688702    -0.77800
C587        C  0.33779693  0.68601432  0.41655412     0.83300
O588        O  0.24445864  0.79661197  0.49151296    -0.78900
O589        O  0.32723196  0.81487200  0.40301804    -0.80400
O590        O  0.21334075  0.76725109  0.35179907    -0.80200
O591        O  0.16551928  0.72806653  0.40630027    -0.78800
Zn592      Zn  0.25489267  0.72009778  0.44404924     1.55700
O593        O  0.28082276  0.76777583  0.34969795    -0.80200
Cd594      Cd  0.19902547  0.77195600  0.39606937     1.59700
Cd595      Cd  0.24375544  0.81422980  0.44761056     1.59600
O596        O  0.16201422  0.82515066  0.40187910    -0.80200
O597        O  0.24934589  0.76779290  0.42073507    -1.90700
Cd598      Cd  0.29818938  0.76695480  0.39399800     1.59900
O599        O  0.19053158  0.85294678  0.43920148    -0.80200
O600        O  0.34005206  0.71603694  0.40032603    -0.78800
C601        C  0.25067501  0.76253890  0.50336039     0.83700
C602        C  0.17416565  0.69750312  0.42233996     0.83400
O603        O  0.30696515  0.68456882  0.43349518    -0.77800
C604        C  0.24640568  0.76699206  0.33696468     0.84200
O605        O  0.25581377  0.73127439  0.48786925    -0.77900
C606        C  0.16236377  0.85347473  0.41991108     0.84300
C607        C  0.32152754  0.84238552  0.42222292     0.84600
O608        O  0.29188390  0.84529462  0.44081285    -0.80300
C609        C  0.09084668  0.61267949  0.42881649    -0.04800
C610        C  0.07955548  0.64768782  0.41280920    -0.32200
C611        C  0.10608028  0.67564755  0.41051269     0.37100
C612        C  0.14497326  0.66878301  0.42427046    -0.05100
C613        C  0.15607928  0.63374456  0.44036765    -0.32100
C614        C  0.12926954  0.60610150  0.44293210     0.37000
H615        H  0.05025666  0.65323808  0.40159166     0.17300
O616        O  0.09318821  0.70979608  0.39522894    -0.59600
H617        H  0.18558516  0.62771828  0.45130947     0.17400
O618        O  0.14066294  0.57299312  0.45971403    -0.59700
H619        H  0.13190746  0.58067230  0.48021460     0.44300
H620        H  0.09943616  0.70331471  0.37412513     0.44300
C621        C  0.12935561  0.88794343  0.41785183    -0.04800
C622        C  0.09985167  0.88919996  0.39539011    -0.32200
C623        C  0.06840336  0.92128937  0.39247925     0.37100
C624        C  0.06733752  0.95442635  0.41106099    -0.05100
C625        C  0.09565943  0.95200707  0.43455254    -0.32100
C626        C  0.12637777  0.91952303  0.43795500     0.37000
H627        H  0.10051591  0.86484905  0.38014061     0.17300
O628        O  0.03851331  0.91967071  0.37163933    -0.59600
H629        H  0.09349525  0.97466488  0.45126428     0.17400
O630        O  0.15300757  0.91904636  0.46124955    -0.59700
H631        H  0.13958032  0.90693087  0.47791390     0.44300
H632        H  0.02568466  0.89618041  0.37658062     0.44300
C633        C  0.43337725  0.58464598  0.41012945    -0.04800
C634        C  0.40110670  0.58567743  0.43088547    -0.32200
C635        C  0.36998452  0.61803001  0.43311964     0.37100
C636        C  0.37121559  0.65162759  0.41531464    -0.05100
C637        C  0.40479688  0.65196478  0.39596968    -0.32100
C638        C  0.43570454  0.61913210  0.39332274     0.37000
H639        H  0.40021784  0.56190788  0.44643675     0.17300
O640        O  0.33919566  0.61670482  0.45359940    -0.59600
H641        H  0.40737316  0.67787153  0.38280015     0.17400
O642        O  0.46945744  0.62201013  0.37578460    -0.59700
H643        H  0.45875118  0.62919883  0.35568826     0.44300
H644        H  0.31903256  0.60250210  0.44366609     0.44300
C645        C  0.40693242  0.92573970  0.42316226    -0.04800
C646        C  0.37053625  0.93298161  0.43992724    -0.32200
C647        C  0.34235423  0.90636727  0.43993163     0.37100
C648        C  0.35042289  0.87155246  0.42290298    -0.05100
C649        C  0.38679724  0.86467617  0.40591597    -0.30500
C650        C  0.41489705  0.89133083  0.40597505     0.37000
H651        H  0.36406891  0.95944035  0.45318093     0.17300
O652        O  0.30710346  0.91489146  0.45661336    -0.59600
H653        H  0.39363577  0.83852283  0.39236329     0.17400
O654        O  0.44886069  0.88458354  0.38785982    -0.59700
H655        H  0.46720134  0.86230746  0.39706867     0.44300
H656        H  0.28698221  0.93084174  0.44346725     0.44300
C657        C  0.24287065  0.76674518  0.24133117    -0.04800
C658        C  0.20620142  0.77287221  0.25783715    -0.32200
C659        C  0.20672706  0.77234348  0.28882283     0.37100
C660        C  0.24462987  0.76623589  0.30407235    -0.05100
C661        C  0.28135145  0.76020770  0.28745594    -0.32100
C662        C  0.28072963  0.76065907  0.25647001     0.37000
H663        H  0.17686639  0.77726651  0.24659871     0.17300
O664        O  0.16989581  0.77864418  0.30383704    -0.59600
H665        H  0.31085062  0.75539852  0.29847793     0.17400
O666        O  0.31742381  0.75583608  0.24131377    -0.59700
H667        H  0.32147925  0.78271312  0.23522261     0.44300
H668        H  0.16066979  0.75253146  0.30488370     0.44300
C669        C  0.50283925  0.52042892  0.30025290    -0.04800
C670        C  0.46703814  0.02319718  0.28425257    -0.32200
C671        C  0.46477780  0.02267349  0.25337987     0.37100
C672        C  0.49984846  0.51767053  0.23770981    -0.05100
C673        C  0.53727159  0.51913924  0.25232741    -0.32100
C674        C  0.53880986  0.52093690  0.28328521     0.37000
H675        H  0.43873849  0.02627288  0.29703155     0.17300
O676        O  0.42667303  0.02613761  0.24060104    -0.59600
H677        H  0.56542726  0.51941387  0.23977420     0.17400
O678        O  0.57540325  0.52416677  0.29671430    -0.59700
H679        H  0.57400797  0.55257301  0.30112902     0.44300
H680        H  0.41698053  0.05484236  0.23924410     0.44300
C681        C  0.09588011  0.61646811  0.11428539    -0.04800
C682        C  0.12758666  0.61568828  0.13514173    -0.32200
C683        C  0.15483292  0.64313464  0.13384777     0.37100
C684        C  0.15080436  0.67195035  0.11139621    -0.05100
C685        C  0.11889645  0.67342358  0.09096527    -0.32100
C686        C  0.09183342  0.64581266  0.09198741     0.37000
H687        H  0.13119665  0.59390936  0.15269462     0.17300
O688        O  0.18495307  0.64186889  0.15484526    -0.59600
H689        H  0.11561167  0.69564207  0.07372654     0.17400
O690        O  0.06188858  0.64769444  0.07083147    -0.59700
H691        H  0.07452881  0.63075193  0.05443778     0.44300
H692        H  0.17304436  0.66043435  0.17051629     0.44300
C693        C  0.17243670  0.82692628  0.12940659    -0.04800
C694        C  0.17446587  0.85697999  0.10829706    -0.32200
C695        C  0.14369427  0.88958197  0.10632753     0.37100
C696        C  0.10831629  0.89164231  0.12392411    -0.05100
C697        C  0.10340377  0.85995790  0.14259562    -0.32100
C698        C  0.13516228  0.82764824  0.14548046     0.37000
H699        H  0.20005325  0.85558985  0.09297962     0.17300
O700        O  0.14805372  0.91904997  0.08655192    -0.59600
H701        H  0.07521459  0.86053513  0.15528074     0.17400
O702        O  0.12887760  0.79633511  0.16297341    -0.59700
H703        H  0.12312861  0.80706557  0.18319944     0.44300
H704        H  0.16487514  0.93627527  0.09695988     0.44300
C705        C  0.30820672  0.69801061  0.13077958    -0.04800
C706        C  0.31173988  0.66780266  0.15209591    -0.32200
C707        C  0.34282896  0.63526208  0.15031419     0.37100
C708        C  0.37091297  0.63142421  0.12629231    -0.05100
C709        C  0.36559428  0.66000088  0.10378986    -0.32100
C710        C  0.33427617  0.69252359  0.10555558     0.37000
H711        H  0.28938683  0.66820963  0.16976184     0.17300
O712        O  0.34528471  0.60749128  0.17236362    -0.59600
H713        H  0.38541694  0.65696670  0.08439433     0.17400
O714        O  0.32804951  0.71767649  0.08177887    -0.59700
H715        H  0.35295685  0.73063486  0.08039916     0.44300
H716        H  0.32750040  0.58837763  0.16577262     0.44300
C717        C  0.39015817  0.91301349  0.12522345    -0.04800
C718        C  0.39703434  0.88071926  0.10581450    -0.32200
C719        C  0.37129469  0.85201285  0.10613646     0.37100
C720        C  0.33741378  0.85557093  0.12558453    -0.05100
C721        C  0.33041966  0.88749407  0.14515101    -0.32100
C722        C  0.35681784  0.91575990  0.14547342     0.37000
H723        H  0.42243435  0.87757645  0.09015121     0.17300
O724        O  0.37810555  0.82168292  0.08618642    -0.59600
H725        H  0.30454580  0.89029228  0.16039080     0.17400
O726        O  0.34927369  0.94608024  0.16539495    -0.59700
H727        H  0.36369198  0.93596415  0.18372412     0.44300
H728        H  0.40076905  0.80268331  0.09469560     0.44300
C729        C  0.10089561  0.60151132  0.92829897    -0.04800
C730        C  0.13881914  0.59289793  0.91329122    -0.32200
C731        C  0.16657153  0.61987280  0.91251699     0.37100
C732        C  0.15678846  0.65644109  0.92697578    -0.05100
C733        C  0.11928558  0.66480261  0.94239740    -0.32100
C734        C  0.09156247  0.63779375  0.94330240     0.37000
H735        H  0.14696505  0.56526938  0.90165852     0.17300
O736        O  0.20261894  0.61037978  0.89693406    -0.59600
H737        H  0.11153197  0.69248198  0.95400848     0.17400
O738        O  0.05568884  0.64720124  0.95916673    -0.59700
H739        H  0.03641064  0.66332511  0.94554810     0.44300
H740        H  0.19606019  0.61919777  0.87634799     0.44300
C741        C  0.37672901  0.62344232  0.91615683    -0.04800
C742        C  0.34884149  0.62612926  0.89259632    -0.32200
C743        C  0.31733738  0.65825349  0.88987862     0.37100
C744        C  0.31486499  0.69047210  0.90965584    -0.05100
C745        C  0.34202360  0.68685720  0.93384869    -0.32100
C746        C  0.37251798  0.65406211  0.93720028     0.37000
H747        H  0.35055435  0.60262533  0.87649993     0.17300
O748        O  0.28834465  0.65693712  0.86838032    -0.59600
H749        H  0.33880466  0.70870052  0.95121396     0.17400
O750        O  0.39737802  0.65205341  0.96159942    -0.59700
H751        H  0.38192214  0.64056050  0.97749726     0.44300
H752        H  0.27191947  0.63657583  0.87492458     0.44300
C753        C  0.17754661  0.81815502  0.91068677    -0.04800
C754        C  0.14634272  0.81852903  0.93229600    -0.32200
C755        C  0.11574544  0.85112484  0.93609839     0.37100
C756        C  0.11593467  0.88503915  0.91850642    -0.05100
C757        C  0.14833917  0.88579547  0.89817861    -0.32100
C758        C  0.17902938  0.85311941  0.89434096     0.37000
H759        H  0.14616093  0.79414010  0.94738715     0.17300
O760        O  0.08596235  0.84929928  0.95728108    -0.59600
H761        H  0.15029483  0.91200955  0.88521043     0.17400
O762        O  0.21197228  0.85666468  0.87617334    -0.59700
H763        H  0.20037061  0.86430778  0.85640190     0.44300
H764        H  0.09633589  0.86071914  0.97536220     0.44300
C765        C  0.33274121  0.84984842  0.93422278    -0.04800
C766        C  0.36564297  0.84670461  0.95403959    -0.32200
C767        C  0.39357679  0.87367111  0.95311574     0.37100
C768        C  0.38889809  0.90440813  0.93184646    -0.05100
C769        C  0.35512754  0.90784480  0.91259747    -0.32100
C770        C  0.32730661  0.88094973  0.91364795     0.37000
H771        H  0.36986526  0.82293372  0.97005921     0.17300
O772        O  0.42521801  0.86954702  0.97307922    -0.59600
H773        H  0.35069277  0.93088399  0.89600247     0.17400
O774        O  0.29667289  0.88351780  0.89296341    -0.59700
H775        H  0.27614508  0.90630199  0.89909867     0.44300
H776        H  0.44604083  0.84818110  0.96507851     0.44300
C777        C  0.00205474  0.00248886  0.74220509    -0.04800
C778        C  0.54265652  0.50702223  0.76127647    -0.32200
C779        C  0.54145047  0.50503519  0.79224532     0.37100
C780        C  0.00329854  0.50661489  0.80730789    -0.05100
C781        C  0.96531525  0.99543905  0.78844869    -0.32100
C782        C  0.96585757  0.99702573  0.75743746     0.37000
H783        H  0.57205850  0.50610468  0.75011724     0.17300
O784        O  0.57780621  0.50191483  0.80740604    -0.59600
H785        H  0.93701669  0.99123819  0.79957906     0.17400
O786        O  0.93081900  0.99307709  0.74219992    -0.59700
H787        H  0.93448837  0.96515582  0.73589194     0.44300
H788        H  0.58652743  0.47327785  0.81039785     0.44300
C789        C  0.24918128  0.75715215  0.73634382    -0.04800
C790        C  0.28590425  0.75699202  0.75216927    -0.32200
C791        C  0.28613940  0.75694123  0.78319966     0.37100
C792        C  0.24911072  0.75782203  0.79924198    -0.05100
C793        C  0.21229227  0.75836998  0.78359841    -0.32100
C794        C  0.21209060  0.75761453  0.75252794     0.37000
H795        H  0.31483941  0.75685689  0.74051867     0.17300
O796        O  0.32252189  0.75787229  0.79765018    -0.59600
H797        H  0.18359482  0.75863306  0.79557402     0.17400
O798        O  0.17532561  0.75771605  0.73835921    -0.59700
H799        H  0.17177478  0.72965123  0.73707370     0.44300
H800        H  0.33886704  0.73143652  0.79467405     0.44300
C801        C  0.37791480  0.63919184  0.62524758    -0.04800
C802        C  0.38216140  0.60869425  0.60431572    -0.32200
C803        C  0.41279990  0.57583652  0.60709471     0.37100
C804        C  0.43881414  0.57148866  0.63215310    -0.05100
C805        C  0.43657588  0.60354308  0.65168066    -0.32100
C806        C  0.40630468  0.63663908  0.64879169     0.37000
H807        H  0.36203050  0.61046062  0.58531298     0.17300
O808        O  0.41751652  0.54869160  0.58466418    -0.59600
H809        H  0.45924205  0.60389351  0.66882793     0.17400
O810        O  0.40565856  0.66670665  0.66877266    -0.59700
H811        H  0.39188950  0.65802795  0.68670684     0.44300
H812        H  0.43691932  0.55819811  0.57041973     0.44300
C813        C  0.13600478  0.87635953  0.62488325    -0.04800
C814        C  0.10477024  0.87625563  0.64625075    -0.32200
C815        C  0.07291805  0.90810456  0.64927662     0.37100
C816        C  0.07212911  0.94178688  0.63109907    -0.05100
C817        C  0.10252583  0.94082930  0.60875033    -0.32100
C818        C  0.13444001  0.90914561  0.60589742     0.37000
H819        H  0.10443529  0.85096162  0.66055580     0.17300
O820        O  0.04098173  0.90469583  0.66843885    -0.59600
H821        H  0.10109758  0.96391559  0.59235665     0.17400
O822        O  0.16342243  0.91047986  0.58404326    -0.59700
H823        H  0.15210572  0.89919161  0.56626347     0.44300
H824        H  0.05353982  0.89729259  0.68797346     0.44300
C825        C  0.35845888  0.85478751  0.61572694    -0.04800
C826        C  0.38821922  0.85436465  0.63799086    -0.32200
C827        C  0.41558498  0.88164007  0.63775494     0.37100
C828        C  0.41326085  0.91009020  0.61521784    -0.05100
C829        C  0.38378570  0.91076406  0.59299107    -0.32100
C830        C  0.35659463  0.88330288  0.59293786     0.37000
H831        H  0.39003722  0.83321147  0.65594747     0.17300
O832        O  0.44310018  0.88164852  0.66043486    -0.59600
H833        H  0.38217107  0.93258328  0.57550919     0.17400
O834        O  0.32896463  0.88428699  0.57022315    -0.59700
H835        H  0.30471828  0.90326151  0.57662895     0.44300
H836        H  0.46573820  0.85994873  0.65581876     0.44300
C837        C  0.09725729  0.59958620  0.61558254    -0.04800
C838        C  0.13417786  0.59189525  0.59944546    -0.32200
C839        C  0.16226467  0.61852622  0.59935551     0.37100
C840        C  0.15377610  0.65367885  0.61588632    -0.05100
C841        C  0.11703071  0.66091243  0.63249218    -0.32100
C842        C  0.08891622  0.63428361  0.63244067     0.37000
H843        H  0.14107397  0.56510285  0.58661699     0.17300
O844        O  0.19821684  0.60929877  0.58355710    -0.59600
H845        H  0.10994636  0.68726298  0.64580533     0.17400
O846        O  0.05464814  0.64133648  0.65028208    -0.59700
H847        H  0.03627721  0.66321942  0.64063792     0.44300
H848        H  0.19159066  0.61896394  0.56317051     0.44300
O849        O  0.69890761  0.34157851  0.60836241    -0.77800
C850        C  0.82797454  0.32727819  0.62531466     0.83300
O851        O  0.75969580  0.22742067  0.54956735    -0.78900
O852        O  0.83872306  0.19956722  0.64261243    -0.80400
O853        O  0.71287273  0.25106853  0.68946272    -0.80200
O854        O  0.66386985  0.30959018  0.64000598    -0.78800
Zn855      Zn  0.75011635  0.30406343  0.59743249     1.55700
O856        O  0.77988148  0.25286323  0.69262592    -0.80200
Cd857      Cd  0.70182513  0.25698823  0.64468900     1.59700
Cd858      Cd  0.75984914  0.20974313  0.59366905     1.59600
O859        O  0.67072683  0.21247858  0.63241176    -0.80200
O860        O  0.75310764  0.25627046  0.62071395    -1.90700
Cd861      Cd  0.80002844  0.25209765  0.64897977     1.59900
O862        O  0.71128381  0.17824394  0.59896333    -0.80200
O863        O  0.83317371  0.29821484  0.64320888    -0.78800
C864        C  0.75373298  0.26145809  0.53760667     0.83700
C865        C  0.66778775  0.34027129  0.62513662     0.83400
O866        O  0.79852609  0.33162325  0.60677601    -0.77800
C867        C  0.74507079  0.25131081  0.70484053     0.84200
O868        O  0.74908822  0.29282132  0.55311740    -0.77900
C869        C  0.67864855  0.18343663  0.61480279     0.84300
C870        C  0.84020288  0.17149554  0.62406605     0.84600
O871        O  0.81346684  0.17188053  0.60363890    -0.80300
C872        C  0.53870411  0.47697028  0.63608599     0.30700
C873        C  0.97008302  0.03487033  0.63303828     0.30700
C874        C  0.99843756  0.46659147  0.62343906    -0.05500
C875        C  0.52521751  0.49511096  0.66642542    -0.06300
C876        C  0.54277528  0.01443867  0.61694334    -0.06100
C877        C  0.96508543  0.49713106  0.62341396    -0.05500
C878        C  0.98664477  0.02056311  0.66378318    -0.06300
C879        C  0.50862636  0.04441775  0.61699034    -0.06100
C880        C  0.93008208  0.47971483  0.62591206    -0.31500
N881        N  0.94064376  0.44009628  0.62588675     0.15000
C882        C  0.98218631  0.43184255  0.62472077    -0.31500
H883        H  0.99959206  0.40260714  0.62618567     0.16900
C884        C  0.97520848  0.02687552  0.69307139    -0.30500
N885        N  0.50837976  0.51191860  0.71286577     0.13700
C886        C  0.53586368  0.48843195  0.69565389    -0.30500
C887        C  0.52364154  0.07966152  0.61509509    -0.30800
N888        N  0.56515983  0.07231184  0.61366357     0.14200
H889        H  0.50569827  0.10863231  0.61725974     0.16800
C890        C  0.57705520  0.03311489  0.61585994    -0.30800
H891        H  0.60848843  0.01962525  0.61981201     0.16800
H892        H  0.56071452  0.46707540  0.70398750     0.16800
H893        H  0.89923015  0.49496558  0.62987864     0.16900
H894        H  0.94831236  0.04584113  0.70139323     0.16800
O895        O  0.53569482  0.08033237  0.93884774    -0.77800
C896        C  0.90843481  0.08664046  0.91580227     0.83300
O897        O  0.49665013  0.47283346  0.99429432    -0.78900
O898        O  0.91475813  0.45912785  0.90516508    -0.80400
O899        O  0.53079457  0.00296875  0.85247796    -0.80200
O900        O  0.57684034  0.04670304  0.90551869    -0.78800
Zn901      Zn  0.48842803  0.05111768  0.94564931     1.55700
O902        O  0.96446885  0.99693801  0.85112141    -0.80200
Cd903      Cd  0.54521106  0.00087029  0.89675082     1.59700
Cd904      Cd  0.49810714  0.45662358  0.95006857     1.59600
O905        O  0.58111870  0.44570549  0.90469049    -0.80200
O906        O  0.49480847  0.00382516  0.92195523    -1.90700
Cd907      Cd  0.94630551  0.00349454  0.89558302     1.59900
O908        O  0.55097959  0.41711920  0.94125845    -0.80200
O909        O  0.90753020  0.05698451  0.89902184    -0.78800
C910        C  0.49399447  0.00780073  0.00478287     0.83700
C911        C  0.56827249  0.07573279  0.92307943     0.83400
O912        O  0.93713389  0.08720650  0.93448968    -0.77800
C913        C  0.49848255  0.99966242  0.83795623     0.84200
O914        O  0.48717182  0.03929084  0.98949023    -0.77900
C915        C  0.57965618  0.41671934  0.92204240     0.84300
C916        C  0.92001031  0.43068484  0.92370487     0.84600
O917        O  0.94955372  0.42670677  0.94210910    -0.80300
C918        C  0.77523117  0.22094118  0.90856511     0.30700
C919        C  0.70959501  0.28043542  0.91000370     0.30700
C920        C  0.78392184  0.26057201  0.92081627    -0.05500
C921        C  0.75599360  0.23362419  0.87846561    -0.06300
C922        C  0.73805722  0.21272777  0.92712762    -0.06100
C923        C  0.75025108  0.29061169  0.92195150    -0.05500
C924        C  0.72182980  0.26316090  0.87908036    -0.06300
C925        C  0.70406691  0.24314715  0.92754714    -0.06100
C926        C  0.76544639  0.32571397  0.92406939    -0.31500
N927        N  0.80706531  0.31820513  0.92353757     0.15000
C928        C  0.81855223  0.27886091  0.92064651    -0.31500
H929        H  0.84978871  0.26498193  0.91619551     0.16900
C930        C  0.71008698  0.27046099  0.85000808    -0.30500
N931        N  0.73752898  0.24792219  0.83212488     0.13700
C932        C  0.76567809  0.22560728  0.84926792    -0.30500
C933        C  0.66958114  0.22483498  0.92958642    -0.30800
N934        N  0.68114394  0.18576609  0.93222614     0.14200
H935        H  0.63825798  0.23826276  0.92513907     0.16800
C936        C  0.72248930  0.17785482  0.93026131    -0.30800
H937        H  0.73953385  0.14857128  0.92781040     0.16800
H938        H  0.79189257  0.20569300  0.84094630     0.16800
H939        H  0.74747067  0.35478444  0.92417809     0.16900
H940        H  0.68466511  0.29164793  0.84225575     0.16800
O941        O  0.54719958  0.42649583  0.10735086    -0.77800
C942        C  0.91862872  0.44259859  0.12478745     0.83300
O943        O  0.98714451  0.04419080  0.04931752    -0.78900
O944        O  0.90524737  0.06856352  0.14043485    -0.80400
O945        O  0.53290534  0.01574827  0.18803073    -0.80200
O946        O  0.58272507  0.45734968  0.13924724    -0.78800
Zn947      Zn  0.99670525  0.46532233  0.09782199     1.55700
O948        O  0.96507091  0.01782107  0.19051943    -0.80200
Cd949      Cd  0.54555875  0.01170694  0.14279789     1.59700
Cd950      Cd  0.98617246  0.06073981  0.09323323     1.59600
O951        O  0.57591283  0.05849203  0.13053318    -0.80200
O952        O  0.99368277  0.01343429  0.11961712    -1.90700
Cd953      Cd  0.94589646  0.01758017  0.14736883     1.59900
O954        O  0.53337770  0.09318130  0.09862343    -0.80200
O955        O  0.91288029  0.47191808  0.14226251    -0.78800
C956        C  0.99286204  0.01037001  0.03722276     0.83700
C957        C  0.57807256  0.42719368  0.12404966     0.83400
O958        O  0.94889617  0.43756803  0.10676326    -0.77800
C959        C  0.99967928  0.01725341  0.20306806     0.84200
O960        O  0.99594296  0.47765998  0.05414119    -0.77900
C961        C  0.56652145  0.08826995  0.11350493     0.84300
C962        C  0.90369651  0.09679183  0.12196490     0.84600
O963        O  0.93160032  0.09753992  0.10229125    -0.80300
C964        C  0.70922586  0.29326638  0.13252099     0.30700
C965        C  0.77302436  0.23239611  0.13141968     0.30700
C966        C  0.75083193  0.30333264  0.12161700    -0.05500
C967        C  0.72133918  0.27436147  0.16286409    -0.06300
C968        C  0.70269418  0.25802808  0.11329513    -0.06100
C969        C  0.78351254  0.27210223  0.12088325    -0.05500
C970        C  0.75406165  0.24317531  0.16233412    -0.06300
C971        C  0.73562221  0.22685615  0.11272021    -0.06100
C972        C  0.81916173  0.28833197  0.12371228    -0.31500
N973        N  0.80935228  0.32789000  0.12505603     0.15000
C974        C  0.76801738  0.33716445  0.12536478    -0.31500
H975        H  0.75158517  0.36633895  0.12971819     0.16900
C976        C  0.76710350  0.23693074  0.19125075    -0.30500
N977        N  0.74247591  0.26208759  0.20919751     0.13700
C978        C  0.71529425  0.28570402  0.19204450    -0.30500
C979        C  0.71886905  0.19295711  0.10846087    -0.30800
N980        N  0.67756223  0.20205438  0.10615480     0.14200
H981        H  0.73513422  0.16329862  0.11086075     0.16800
C982        C  0.66732435  0.24141467  0.10940460    -0.30800
H983        H  0.63617998  0.25613363  0.11299953     0.16800
H984        H  0.69444296  0.31083346  0.20017949     0.16800
H985        H  0.84981252  0.27237382  0.12695188     0.16900
H986        H  0.79341456  0.21657633  0.19869259     0.16800
C987        C  0.96848526  0.05001939  0.40735415     0.30700
C988        C  0.53267955  0.48912133  0.40950098     0.30700
C989        C  0.95908335  0.01111216  0.42077113    -0.05500
C990        C  0.98686950  0.03609490  0.37704934    -0.06300
C991        C  0.50635209  0.05796816  0.42483046    -0.06100
C992        C  0.99248954  0.47981248  0.42341436    -0.05500
C993        C  0.52038445  0.00593869  0.37772262    -0.06300
C994        C  0.53968083  0.02714215  0.42513855    -0.06100
C995        C  0.97653736  0.44501357  0.42475183    -0.31500
N996        N  0.93503585  0.45325018  0.42477789     0.15000
C997        C  0.92413986  0.49264384  0.42265334    -0.31500
H998        H  0.89334142  0.00729963  0.41494292     0.16900
C999        C  0.53084908  0.49860931  0.34961958    -0.30500
N1000       N  0.00590668  0.02104049  0.33059762     0.13700
C1001       C  0.97788098  0.04406882  0.34775844    -0.30500
C1002       C  0.57472034  0.04460089  0.42667690    -0.30800
N1003       N  0.56406515  0.08388936  0.42938113     0.14200
H1004       H  0.60580613  0.03023494  0.42228800     0.16800
C1005       C  0.52265020  0.09241452  0.42769953    -0.30800
H1006       H  0.50586685  0.12188713  0.42571983     0.16800
H1007       H  0.95227436  0.06457736  0.33943924     0.16800
H1008       H  0.99385875  0.41568757  0.42358608     0.16900
H1009       H  0.55642866  0.47764804  0.34161052     0.16800
O1010       O  0.70876823  0.19035345  0.43931532    -0.77800
C1011       C  0.83766935  0.18604591  0.41652398     0.83300
O1012       O  0.74493292  0.29828369  0.49280426    -0.78900
O1013       O  0.82697896  0.31482065  0.40287740    -0.80400
O1014       O  0.71280796  0.26805832  0.35183821    -0.80200
O1015       O  0.66838530  0.22583653  0.40675495    -0.78800
Zn1016     Zn  0.75588861  0.22046938  0.44580582     1.55700
O1017       O  0.78025660  0.26810927  0.34976656    -0.80200
Cd1018     Cd  0.69940067  0.27136435  0.39664890     1.59700
Cd1019     Cd  0.74388719  0.31434503  0.44830209     1.59600
O1020       O  0.66090636  0.32364643  0.40340094    -0.80200
O1021       O  0.74950031  0.26766571  0.42155332    -1.90700
Cd1022     Cd  0.79763647  0.26705316  0.39411093     1.59900
O1023       O  0.69090239  0.35308241  0.43918893    -0.80200
O1024       O  0.83903695  0.21582224  0.39985474    -0.78800
C1025       C  0.75200979  0.26444834  0.50499013     0.83700
C1026       C  0.67639753  0.19592510  0.42354448     0.83400
O1027       O  0.80794418  0.18493887  0.43460322    -0.77800
C1028       C  0.74590467  0.26751589  0.33693165     0.84200
O1029       O  0.75752619  0.23297065  0.48966686    -0.77900
C1030       C  0.66191968  0.35270951  0.42064967     0.84300
C1031       C  0.82149198  0.34212244  0.42225381     0.84600
O1032       O  0.79207261  0.34483779  0.44099453    -0.80300
C1033       C  0.59221281  0.11184258  0.42805557    -0.04800
C1034       C  0.58399622  0.14464508  0.40938886    -0.32200
C1035       C  0.61132163  0.17181286  0.40729708     0.37100
C1036       C  0.64735290  0.16699619  0.42468943    -0.05100
C1037       C  0.65562827  0.13383157  0.44323850    -0.32100
C1038       C  0.62850451  0.10630507  0.44484439     0.37000
H1039       H  0.55665663  0.14876422  0.39580979     0.17300
O1040       O  0.60225521  0.20292309  0.38815089    -0.59600
H1041       H  0.68317713  0.12910098  0.45660223     0.17400
O1042       O  0.63760026  0.07413177  0.46297272    -0.59700
H1043       H  0.62713854  0.08313667  0.48284268     0.44300
H1044       H  0.61499388  0.19348405  0.36898055     0.44300
C1045       C  0.62893341  0.38719481  0.41840310    -0.04800
C1046       C  0.60067568  0.38929531  0.39506513    -0.32200
C1047       C  0.56924039  0.42142196  0.39210676     0.37100
C1048       C  0.56737272  0.45408050  0.41132680    -0.05100
C1049       C  0.59464963  0.45091078  0.43546722    -0.32100
C1050       C  0.62489284  0.41806827  0.43916186     0.37000
H1051       H  0.60218679  0.36548388  0.37924645     0.17300
O1052       O  0.54000462  0.42005669  0.37074903    -0.59600
H1053       H  0.59183895  0.47326709  0.45245691     0.17400
O1054       O  0.64975295  0.41632875  0.46354622    -0.59700
H1055       H  0.63478634  0.40400136  0.47929526     0.44300
H1056       H  0.52617483  0.39723070  0.37581446     0.44300
C1057       C  0.93350717  0.08504844  0.40823098    -0.04800
C1058       C  0.90126471  0.08545390  0.42899082    -0.32200
C1059       C  0.86977296  0.11739180  0.43149970     0.37100
C1060       C  0.87091054  0.15158230  0.41440552    -0.05100
C1061       C  0.90426979  0.15248568  0.39490327    -0.32100
C1062       C  0.93529785  0.11980865  0.39167636     0.37000
H1063       H  0.90058088  0.06146402  0.44436390     0.17300
O1064       O  0.83859894  0.11495788  0.45146179    -0.59600
H1065       H  0.90661017  0.17874607  0.38209419     0.17400
O1066       O  0.96863111  0.12313315  0.37383589    -0.59700
H1067       H  0.95745075  0.13056189  0.35391081     0.44300
H1068       H  0.81895715  0.10078284  0.44090595     0.44300
C1069       C  0.90694306  0.42525938  0.42405130    -0.04800
C1070       C  0.87308950  0.42984234  0.44338655    -0.32200
C1071       C  0.84495694  0.40323624  0.44316045     0.37100
C1072       C  0.85031505  0.37133580  0.42305046    -0.05100
C1073       C  0.88404367  0.36733009  0.40336543    -0.30500
C1074       C  0.91235635  0.39379038  0.40390852     0.37000
H1075       H  0.86876548  0.45406845  0.45894734     0.17300
O1076       O  0.81277371  0.40859018  0.46298063    -0.59600
H1077       H  0.88871806  0.34354463  0.38743768     0.17400
O1078       O  0.94404657  0.38985803  0.38369745    -0.59700
H1079       H  0.96281080  0.36582637  0.38974128     0.44300
H1080       H  0.79043740  0.42608769  0.45274260     0.44300
C1081       C  0.74386452  0.26326960  0.24107379    -0.04800
C1082       C  0.70713934  0.26578259  0.25740348    -0.32200
C1083       C  0.70717723  0.26676465  0.28841565     0.37100
C1084       C  0.74458575  0.26592066  0.30390735    -0.05100
C1085       C  0.78140752  0.26325000  0.28737911    -0.32100
C1086       C  0.78125127  0.26186909  0.25631901     0.37000
H1087       H  0.67820341  0.26648728  0.24594839     0.17300
O1088       O  0.67027921  0.26909942  0.30317249    -0.59600
H1089       H  0.81060571  0.26237273  0.29850122     0.17400
O1090       O  0.81772844  0.25984774  0.24108296    -0.59700
H1091       H  0.82359294  0.28727193  0.24029643     0.44300
H1092       H  0.66570787  0.24145051  0.30582735     0.44300
C1093       C  0.00503633  0.01935772  0.29870493    -0.04800
C1094       C  0.96553769  0.51915355  0.28583795    -0.32200
C1095       C  0.96365197  0.51816729  0.25495006     0.37100
C1096       C  0.00115912  0.01810275  0.23599951    -0.05100
C1097       C  0.03931652  0.01388772  0.25052084    -0.32100
C1098       C  0.04144247  0.01446341  0.28153956     0.37000
H1099       H  0.93764796  0.51876484  0.29867751     0.17300
O1100       O  0.92617926  0.51739580  0.24200091    -0.59600
H1101       H  0.06774556  0.01016733  0.23785186     0.17400
O1102       O  0.07922600  0.01071726  0.29477802    -0.59700
H1103       H  0.08700673  0.03745110  0.29428152     0.44300
H1104       H  0.91249251  0.54517121  0.24178697     0.44300
C1105       C  0.59468244  0.11819566  0.11120475    -0.04800
C1106       C  0.62601979  0.11813101  0.13221717    -0.32200
C1107       C  0.65288818  0.14589498  0.13091481     0.37100
C1108       C  0.64927079  0.17420395  0.10814110    -0.05100
C1109       C  0.61764830  0.17510536  0.08744211    -0.32100
C1110       C  0.59062285  0.14727729  0.08864004     0.37000
H1111       H  0.62952803  0.09673285  0.15002917     0.17300
O1112       O  0.68231956  0.14549952  0.15232025    -0.59600
H1113       H  0.61446651  0.19703691  0.06999507     0.17400
O1114       O  0.56061863  0.14877935  0.06753472    -0.59700
H1115       H  0.57349408  0.13226305  0.05099374     0.44300
H1116       H  0.67019374  0.16521696  0.16716211     0.44300
C1117       C  0.67359538  0.32751322  0.13057869    -0.04800
C1118       C  0.67477828  0.35665416  0.10859238    -0.32200
C1119       C  0.64397772  0.38920647  0.10657586     0.37100
C1120       C  0.60979171  0.39230924  0.12546347    -0.05100
C1121       C  0.60591562  0.36175488  0.14541378    -0.32100
C1122       C  0.63735670  0.32921413  0.14794326     0.37000
H1123       H  0.69975379  0.35449229  0.09266944     0.17300
O1124       O  0.64714342  0.41754776  0.08559773    -0.59600
H1125       H  0.57849278  0.36315330  0.15907087     0.17400
O1126       O  0.63141439  0.29832454  0.16599888    -0.59700
H1127       H  0.62485321  0.30965193  0.18596874     0.44300
H1128       H  0.66277030  0.43642749  0.09527525     0.44300
C1129       C  0.80760516  0.19739119  0.12886854    -0.04800
C1130       C  0.80930062  0.16597144  0.14903498    -0.32200
C1131       C  0.83976372  0.13297111  0.14694593     0.37100
C1132       C  0.86915715  0.13008769  0.12379424    -0.05100
C1133       C  0.86556934  0.15990191  0.10221796    -0.32100
C1134       C  0.83487336  0.19289022  0.10426297     0.37000
H1135       H  0.78624345  0.16617857  0.16623141     0.17300
O1136       O  0.84062945  0.10402112  0.16800701    -0.59600
H1137       H  0.88651800  0.15769285  0.08344959     0.17400
O1138       O  0.83061944  0.21957017  0.08137397    -0.59700
H1139       H  0.85646364  0.23114466  0.08086075     0.44300
H1140       H  0.81902184  0.08844112  0.16208051     0.44300
C1141       C  0.89008918  0.41318486  0.12552133    -0.04800
C1142       C  0.89488687  0.38271794  0.10446042    -0.32200
C1143       C  0.86914264  0.35401728  0.10477630     0.37100
C1144       C  0.83767857  0.35555076  0.12608564    -0.05100
C1145       C  0.83242480  0.38589468  0.14704380    -0.32100
C1146       C  0.85858557  0.41436445  0.14713690     0.37000
H1147       H  0.91849393  0.38114675  0.08745407     0.17300
O1148       O  0.87328327  0.32586154  0.08306051    -0.59600
H1149       H  0.80805327  0.38732061  0.16346092     0.17400
O1150       O  0.85277344  0.44323782  0.16831308    -0.59700
H1151       H  0.86863443  0.43185753  0.18570699     0.44300
H1152       H  0.89578450  0.30530365  0.08983627     0.44300
C1153       C  0.59700944  0.10458376  0.92547468    -0.04800
C1154       C  0.62492651  0.10825883  0.90225582    -0.32200
C1155       C  0.65271944  0.13503928  0.90426862     0.37100
C1156       C  0.65355415  0.15773969  0.92998677    -0.05100
C1157       C  0.62550959  0.15471898  0.95293984    -0.32100
C1158       C  0.59721473  0.12848333  0.95086838     0.37000
H1159       H  0.62479817  0.09080740  0.88232213     0.17300
O1160       O  0.67838110  0.13949898  0.88082856    -0.59600
H1161       H  0.62578721  0.17274338  0.97255697     0.17400
O1162       O  0.57098814  0.12547866  0.97425371    -0.59700
H1163       H  0.54758372  0.14696273  0.97126479     0.44300
H1164       H  0.66402761  0.16205353  0.86931424     0.44300
C1165       C  0.87530092  0.12118843  0.91363771    -0.04800
C1166       C  0.84291777  0.12057366  0.89364754    -0.32200
C1167       C  0.81046593  0.15207820  0.89178239     0.37100
C1168       C  0.81088661  0.18643699  0.90901015    -0.05100
C1169       C  0.84259126  0.18603460  0.92984980    -0.32100
C1170       C  0.87466631  0.15447075  0.93194967     0.37000
H1171       H  0.84200868  0.09508473  0.87976709     0.17300
O1172       O  0.77819942  0.14854715  0.87336363    -0.59600
H1173       H  0.84223790  0.20972588  0.94554789     0.17400
O1174       O  0.90514491  0.15672015  0.95217868    -0.59700
H1175       H  0.89504447  0.14639492  0.97094106     0.44300
H1176       H  0.76586829  0.12581824  0.88086893     0.44300
C1177       C  0.67446054  0.31525597  0.91210508    -0.04800
C1178       C  0.64482430  0.31693106  0.93504339    -0.32200
C1179       C  0.61360644  0.34908064  0.93832597     0.37100
C1180       C  0.61210905  0.38175170  0.91928302    -0.05100
C1181       C  0.64272020  0.38121127  0.89731191    -0.32100
C1182       C  0.67364804  0.34865962  0.89366356     0.37000
H1183       H  0.64629583  0.29409222  0.95161346     0.17300
O1184       O  0.58502723  0.34814890  0.96051578    -0.59600
H1185       H  0.64315755  0.40638889  0.88290387     0.17400
O1186       O  0.70472049  0.35097508  0.87351017    -0.59700
H1187       H  0.69122023  0.35775314  0.85420093     0.44300
H1188       H  0.59736664  0.35835550  0.97831704     0.44300
C1189       C  0.83474144  0.34680100  0.92363695    -0.04800
C1190       C  0.87072930  0.33958710  0.94048064    -0.32200
C1191       C  0.89881823  0.36628401  0.94065022     0.37100
C1192       C  0.89104050  0.40141290  0.92385332    -0.05100
C1193       C  0.85509126  0.40830641  0.90671188    -0.32100
C1194       C  0.82702584  0.38147461  0.90659271     0.37000
H1195       H  0.87704112  0.31298263  0.95363697     0.17300
O1196       O  0.93377131  0.35749000  0.95728716    -0.59600
H1197       H  0.84857342  0.43460429  0.89323872     0.17400
O1198       O  0.79336492  0.38833343  0.88848815    -0.59700
H1199       H  0.77469534  0.41034664  0.89782122     0.44300
H1200       H  0.95354004  0.34029090  0.94451477     0.44300
C1201       C  0.50639321  0.51057218  0.74469985    -0.04800
C1202       C  0.03743434  0.00599748  0.75840012    -0.32200
C1203       C  0.03692943  0.00495539  0.78941808     0.37100
C1204       C  0.50052400  0.99965967  0.80493685    -0.05100
C1205       C  0.46712025  0.50971519  0.79052398    -0.32100
C1206       C  0.46845762  0.51152160  0.75960970     0.37000
H1207       H  0.06536450  0.01048115  0.74688051     0.17300
O1208       O  0.07186423  0.01055942  0.80419950    -0.59600
H1209       H  0.43747493  0.51064942  0.80133884     0.17400
O1210       O  0.43245064  0.51338004  0.74419289    -0.59700
H1211       H  0.43140721  0.48601703  0.73773750     0.44300
H1212       H  0.08939701  0.98440533  0.80450869     0.44300
C1213       C  0.74218334  0.25018823  0.73772372    -0.04800
C1214       C  0.77705411  0.25435470  0.75453703    -0.32200
C1215       C  0.77575473  0.25349751  0.78547110     0.37100
C1216       C  0.73891802  0.24942598  0.80034941    -0.05100
C1217       C  0.70381268  0.24574249  0.78384623    -0.32100
C1218       C  0.70533784  0.24536449  0.75279247     0.37000
H1219       H  0.80568064  0.25829114  0.74375340     0.17300
O1220       O  0.81028740  0.25821156  0.80108490    -0.59600
H1221       H  0.67546563  0.24208482  0.79514530     0.17400
O1222       O  0.67069244  0.24001664  0.73756174    -0.59700
H1223       H  0.67282577  0.21113911  0.73502447     0.44300
H1224       H  0.82917023  0.23296654  0.79891995     0.44300
C1225       C  0.87348840  0.13712234  0.62655690    -0.04800
C1226       C  0.87930201  0.10901075  0.60381606    -0.32200
C1227       C  0.91000013  0.07608904  0.60562980     0.37100
C1228       C  0.93452272  0.06919193  0.63134032    -0.05100
C1229       C  0.93036036  0.09881725  0.65307054    -0.32100
C1230       C  0.89986047  0.13183736  0.65126200     0.37000
H1231       H  0.86058415  0.11292235  0.58406823     0.17300
O1232       O  0.91644672  0.05161145  0.58158074    -0.59600
H1233       H  0.95180711  0.09755282  0.67114850     0.17400
O1234       O  0.89696019  0.15912307  0.67357975    -0.59700
H1235       H  0.87812157  0.15009107  0.68847699     0.44300
H1236       H  0.93876876  0.06109393  0.57002699     0.44300
C1237       C  0.63553947  0.37523289  0.62791176    -0.04800
C1238       C  0.60512904  0.37621512  0.65005483    -0.32200
C1239       C  0.57447503  0.40903618  0.65360383     0.37100
C1240       C  0.57380540  0.44211246  0.63479625    -0.05100
C1241       C  0.60337233  0.43992518  0.61179124    -0.32100
C1242       C  0.63415966  0.40752528  0.60857252     0.37000
H1243       H  0.60475683  0.35126100  0.66470338     0.17300
O1244       O  0.54358063  0.40727497  0.67400991    -0.59600
H1245       H  0.60209833  0.46257136  0.59506460     0.17400
O1246       O  0.66211976  0.40758685  0.58586639    -0.59700
H1247       H  0.64979059  0.39566919  0.56879135     0.44300
H1248       H  0.55725975  0.40037164  0.69324050     0.44300
C1249       C  0.85653527  0.35691496  0.62623817    -0.04800
C1250       C  0.89260908  0.34987468  0.64331913    -0.32200
C1251       C  0.92025495  0.37721589  0.64400030     0.37100
C1252       C  0.91222938  0.41214164  0.62717371    -0.05100
C1253       C  0.87569266  0.41969889  0.61100088    -0.32100
C1254       C  0.84784187  0.39288120  0.61065987     0.37000
H1255       H  0.89950353  0.32313263  0.65626197     0.17300
O1256       O  0.95368499  0.37060380  0.66236402    -0.59600
H1257       H  0.86885831  0.44657148  0.59822067     0.17400
O1258       O  0.81213177  0.40240787  0.59499036    -0.59700
H1259       H  0.79254939  0.41785068  0.60892854     0.44300
H1260       H  0.97237643  0.34825233  0.65346400     0.44300
C1261       C  0.59271374  0.10079270  0.61349723    -0.04800
C1262       C  0.62666628  0.09576383  0.59418215    -0.32200
C1263       C  0.65472217  0.12247975  0.59392065     0.37100
C1264       C  0.64912076  0.15492241  0.61343998    -0.05100
C1265       C  0.61507414  0.15955399  0.63292592    -0.32100
C1266       C  0.58715325  0.13275490  0.63314412     0.37000
H1267       H  0.63134671  0.07089020  0.57921640     0.17300
O1268       O  0.68788552  0.11592198  0.57500922    -0.59600
H1269       H  0.61034670  0.18361519  0.64861771     0.17400
O1270       O  0.55631776  0.13635956  0.65405231    -0.59700
H1271       H  0.53661955  0.15979120  0.64806742     0.44300
H1272       H  0.67788712  0.12807849  0.55594685     0.44300
O1273       O  0.69946102  0.84269221  0.60519423    -0.77800
C1274       C  0.82908452  0.82632656  0.61729607     0.83300
O1275       O  0.76031445  0.72557531  0.54799892    -0.78900
O1276       O  0.84166889  0.70138287  0.64055022    -0.80400
O1277       O  0.71756368  0.75599549  0.68877812    -0.80200
O1278       O  0.66558776  0.81113259  0.63781152    -0.78800
Zn1279     Zn  0.74943899  0.80361982  0.59431022     1.55700
O1280       O  0.78478524  0.75729782  0.69008020    -0.80200
Cd1281     Cd  0.70438230  0.75877875  0.64391970     1.59700
Cd1282     Cd  0.76232166  0.70935505  0.59255052     1.59600
O1283       O  0.67443052  0.71245107  0.63360853    -0.80200
O1284       O  0.75456180  0.75673811  0.61874480    -1.90700
Cd1285     Cd  0.80237097  0.75368390  0.64588425     1.59900
O1286       O  0.71473406  0.67770077  0.60011363    -0.80200
O1287       O  0.83467091  0.79881494  0.63647507    -0.78800
C1288       C  0.75244735  0.75940059  0.53582142     0.83700
C1289       C  0.66877862  0.84160264  0.62238255     0.83400
O1290       O  0.79846326  0.83034331  0.59990895    -0.77800
C1291       C  0.75047638  0.75681666  0.70330504     0.84200
O1292       O  0.74651853  0.79090430  0.55100523    -0.77900
C1293       C  0.68262494  0.68281494  0.61650678     0.84300
C1294       C  0.84388014  0.67294174  0.62231800     0.84600
O1295       O  0.81708556  0.67241859  0.60202428    -0.80300
C1296       C  0.53638018  0.97610686  0.63271361     0.30700
C1297       C  0.97388628  0.53686500  0.63496529     0.30700
C1298       C  0.99704259  0.96615821  0.61838202    -0.05500
C1299       C  0.52130841  0.99154668  0.66354637    -0.06300
C1300       C  0.54572905  0.51382282  0.61847214    -0.06100
C1301       C  0.96305057  0.99611835  0.61870580    -0.05500
C1302       C  0.99156458  0.52525499  0.66592045    -0.06300
C1303       C  0.51200281  0.54423131  0.61736716    -0.06100
C1304       C  0.92849394  0.97803910  0.61722728    -0.31500
N1305       N  0.94039911  0.93878896  0.61488370     0.15000
C1306       C  0.98188573  0.93109684  0.61610276    -0.31500
H1307       H  0.99944899  0.90189738  0.61765764     0.16900
C1308       C  0.98132313  0.53450012  0.69495300    -0.30500
N1309       N  0.50313680  0.00444147  0.71039468     0.13700
C1310       C  0.53189120  0.98343727  0.69266232    -0.30500
C1311       C  0.52778165  0.57906796  0.61497672    -0.30800
N1312       N  0.56927330  0.57138395  0.61509614     0.14200
H1313       H  0.50998346  0.60818942  0.61596349     0.16800
C1314       C  0.58036217  0.53217860  0.61810274    -0.30800
H1315       H  0.61130415  0.51842814  0.62340251     0.16800
H1316       H  0.55796010  0.96313712  0.70053788     0.16800
H1317       H  0.89700400  0.99202130  0.62054712     0.16900
H1318       H  0.95542151  0.55528161  0.70265251     0.16800
O1319       O  0.53758390  0.57979459  0.94152282    -0.77800
C1320       C  0.90919305  0.58840874  0.91861247     0.83300
O1321       O  0.50154003  0.97404609  0.99273152    -0.78900
O1322       O  0.91355036  0.95903276  0.90876332    -0.80400
O1323       O  0.53291432  0.50571146  0.85532223    -0.80200
O1324       O  0.57979937  0.54266444  0.91079671    -0.78800
Zn1325     Zn  0.48916886  0.55125734  0.94787699     1.55700
O1326       O  0.96589904  0.50340128  0.85260831    -0.80200
Cd1327     Cd  0.54556638  0.49973711  0.89970140     1.59700
Cd1328     Cd  0.50052244  0.95740963  0.94894076     1.59600
O1329       O  0.58405169  0.94875186  0.90357224    -0.80200
O1330       O  0.49440836  0.50395280  0.92397139    -1.90700
Cd1331     Cd  0.94664489  0.50581844  0.89662854     1.59900
O1332       O  0.55328617  0.91876468  0.93911793    -0.80200
O1333       O  0.90772431  0.55887875  0.90180443    -0.78800
C1334       C  0.49177827  0.50663520  0.00649435     0.83700
C1335       C  0.57124799  0.57308622  0.92699879     0.83400
O1336       O  0.93819217  0.58866083  0.93713225    -0.77800
C1337       C  0.50057198  0.50511150  0.84017819     0.84200
O1338       O  0.48759600  0.53831212  0.99137910    -0.77900
C1339       C  0.58274714  0.91946234  0.92071412     0.84300
C1340       C  0.91934457  0.93203330  0.92849055     0.84600
O1341       O  0.95088937  0.92785780  0.94504641    -0.80300
C1342       C  0.77937603  0.72499263  0.90855164     0.30700
C1343       C  0.71279326  0.78352448  0.90899865     0.30700
C1344       C  0.78519925  0.76272979  0.92522005    -0.05500
C1345       C  0.76475563  0.74161228  0.87797300    -0.06300
C1346       C  0.73982991  0.71442290  0.92268497    -0.06100
C1347       C  0.75090934  0.79226884  0.92574915    -0.05500
C1348       C  0.73006049  0.77047320  0.87813522    -0.06300
C1349       C  0.70554211  0.74400028  0.92249626    -0.06100
C1350       C  0.76486927  0.82717894  0.93170089    -0.31500
N1351       N  0.80631988  0.82027461  0.93397033     0.15000
C1352       C  0.81910721  0.78143650  0.92929215    -0.31500
H1353       H  0.85091082  0.76859991  0.92571889     0.16900
C1354       C  0.71989296  0.77882380  0.84892582    -0.30500
N1355       N  0.74872353  0.75770631  0.83120734     0.13700
C1356       C  0.77642784  0.73533317  0.84877793    -0.30500
C1357       C  0.67154796  0.72486003  0.92306052    -0.30800
N1358       N  0.68389351  0.68559430  0.92590675     0.14200
H1359       H  0.64008767  0.73820001  0.91902820     0.16800
C1360       C  0.72554860  0.67897297  0.92544173    -0.30800
H1361       H  0.74435122  0.65032208  0.92539849     0.16800
H1362       H  0.80270503  0.71528205  0.84077978     0.16800
H1363       H  0.74665058  0.85614964  0.93139440     0.16900
H1364       H  0.69350350  0.79874678  0.84106557     0.16800
O1365       O  0.54511401  0.92598171  0.10667554    -0.77800
C1366       C  0.91840971  0.94272145  0.12411568     0.83300
O1367       O  0.98710014  0.54314505  0.05101183    -0.78900
O1368       O  0.90680540  0.56967093  0.14269599    -0.80400
O1369       O  0.53213901  0.51576892  0.19003780    -0.80200
O1370       O  0.58270588  0.95763231  0.13654652    -0.78800
Zn1371     Zn  0.99581041  0.96595846  0.09618377     1.55700
O1372       O  0.96461016  0.51572786  0.19198436    -0.80200
Cd1373     Cd  0.54533238  0.51110606  0.14507580     1.59700
Cd1374     Cd  0.98681604  0.56027656  0.09492531     1.59600
O1375       O  0.57627919  0.55723454  0.13337678    -0.80200
O1376       O  0.99400074  0.51297792  0.12123997    -1.90700
Cd1377     Cd  0.94591308  0.51741273  0.14861475     1.59900
O1378       O  0.53465381  0.59190074  0.10090144    -0.80200
O1379       O  0.91414536  0.97086188  0.14264915    -0.78800
C1380       C  0.99148007  0.50927746  0.03893596     0.83700
C1381       C  0.57679495  0.92685052  0.12252583     0.83400
O1382       O  0.94702117  0.93907697  0.10469880    -0.77800
C1383       C  0.99885609  0.51625475  0.20480540     0.84200
O1384       O  0.99736739  0.97869052  0.05242099    -0.77900
C1385       C  0.56742895  0.58688744  0.11623928     0.84300
C1386       C  0.90520553  0.59783897  0.12417104     0.84600
O1387       O  0.93259357  0.59799656  0.10402578    -0.80300
C1388       C  0.70861849  0.79309818  0.13209753     0.30700
C1389       C  0.77303929  0.73266972  0.13269126     0.30700
C1390       C  0.75037880  0.80313069  0.12125937    -0.05500
C1391       C  0.72028018  0.77538554  0.16289470    -0.06300
C1392       C  0.70292340  0.75685658  0.11362257    -0.06100
C1393       C  0.78321510  0.77205585  0.12138117    -0.05500
C1394       C  0.75324853  0.74439561  0.16312841    -0.06300
C1395       C  0.73624471  0.72591214  0.11400969    -0.06100
C1396       C  0.81878721  0.78837988  0.12385797    -0.31500
N1397       N  0.80897525  0.82795423  0.12433981     0.15000
C1398       C  0.76757474  0.83713195  0.12441350    -0.31500
H1399       H  0.75110338  0.86640032  0.12832701     0.16900
C1400       C  0.76590664  0.73927883  0.19206347    -0.30500
N1401       N  0.74111534  0.76493595  0.20948777     0.13700
C1402       C  0.71374354  0.78770831  0.19184797    -0.30500
C1403       C  0.72005491  0.69147090  0.11146654    -0.30800
N1404       N  0.67879717  0.69993292  0.10923980     0.14200
H1405       H  0.73675955  0.66216571  0.11483402     0.16800
C1406       C  0.66798174  0.73939856  0.11062932    -0.30800
H1407       H  0.63661999  0.75393895  0.11338927     0.16800
H1408       H  0.69240537  0.81287477  0.19938673     0.16800
H1409       H  0.84934217  0.77250443  0.12763879     0.16900
H1410       H  0.79219112  0.71927225  0.19986191     0.16800
C1411       C  0.96796111  0.54931379  0.40925880     0.30700
C1412       C  0.53290139  0.98958698  0.40878947     0.30700
C1413       C  0.95908639  0.51043718  0.42297163    -0.05500
C1414       C  0.98530077  0.53542488  0.37865915    -0.06300
C1415       C  0.50623728  0.55721374  0.42617244    -0.06100
C1416       C  0.99233143  0.98061201  0.42211026    -0.05500
C1417       C  0.51916037  0.50563191  0.37875318    -0.06300
C1418       C  0.53976164  0.52670419  0.42577758    -0.06100
C1419       C  0.97649147  0.94585886  0.42432822    -0.31500
N1420       N  0.93498154  0.95389965  0.42341707     0.15000
C1421       C  0.92418312  0.99320891  0.42014807    -0.31500
H1422       H  0.89313293  0.50690407  0.41815530     0.16900
C1423       C  0.53227458  0.99793783  0.34870237    -0.30500
N1424       N  0.00368428  0.52153579  0.33203898     0.13700
C1425       C  0.97543605  0.54365653  0.34951593    -0.30500
C1426       C  0.57455457  0.54463992  0.42704260    -0.30800
N1427       N  0.56345267  0.58391706  0.43038131     0.14200
H1428       H  0.60559575  0.53056982  0.42214239     0.16800
C1429       C  0.52194138  0.59181087  0.42960654    -0.30800
H1430       H  0.50448422  0.62108494  0.42863870     0.16800
H1431       H  0.94939473  0.56388635  0.34148140     0.16800
H1432       H  0.99404696  0.91661186  0.42459776     0.16900
H1433       H  0.55720459  0.97587898  0.34123388     0.16800
O1434       O  0.70755563  0.69094121  0.43688872    -0.77800
C1435       C  0.83779648  0.68601370  0.41655291     0.83300
O1436       O  0.74446043  0.79661165  0.49151318    -0.78900
O1437       O  0.82723201  0.81487196  0.40301820    -0.80400
O1438       O  0.71333947  0.76724872  0.35180019    -0.80200
O1439       O  0.66551944  0.72806575  0.40630239    -0.78800
Zn1440     Zn  0.75489351  0.72009708  0.44404968     1.55700
O1441       O  0.78082106  0.76777594  0.34969849    -0.80200
Cd1442     Cd  0.69902552  0.77195500  0.39607032     1.59700
Cd1443     Cd  0.74375596  0.81422951  0.44761081     1.59600
O1444       O  0.66201531  0.82515050  0.40187876    -0.80200
O1445       O  0.74934625  0.76779236  0.42073553    -1.90700
Cd1446     Cd  0.79818908  0.76695475  0.39399807     1.59900
O1447       O  0.69053161  0.85294622  0.43920184    -0.80200
O1448       O  0.84005150  0.71603645  0.40032493    -0.78800
C1449       C  0.75067787  0.76253865  0.50336066     0.83700
C1450       C  0.67416548  0.69750240  0.42234222     0.83400
O1451       O  0.80696520  0.68456833  0.43349444    -0.77800
C1452       C  0.74640394  0.76699097  0.33696560     0.84200
O1453       O  0.75581699  0.73127403  0.48786961    -0.77900
C1454       C  0.66236443  0.85347448  0.41991088     0.84300
C1455       C  0.82152778  0.84238545  0.42222316     0.84600
O1456       O  0.79188412  0.84529465  0.44081306    -0.80300
C1457       C  0.59084356  0.61268167  0.42881810    -0.04800
C1458       C  0.57955089  0.64769278  0.41281465    -0.32200
C1459       C  0.60607626  0.67565208  0.41051942     0.37100
C1460       C  0.64497182  0.66878341  0.42427349    -0.05100
C1461       C  0.65607811  0.63374294  0.44036849    -0.32100
C1462       C  0.62926756  0.60610140  0.44293241     0.37000
H1463       H  0.55025032  0.65324605  0.40159964     0.17300
O1464       O  0.59318150  0.70980503  0.39524180    -0.59600
H1465       H  0.68558482  0.62771457  0.45130896     0.17400
O1466       O  0.64066092  0.57299449  0.45971560    -0.59700
H1467       H  0.63169396  0.58061163  0.48018674     0.44300
H1468       H  0.59943070  0.70333120  0.37413700     0.44300
C1469       C  0.62935626  0.88794321  0.41785130    -0.04800
C1470       C  0.59985205  0.88919931  0.39538978    -0.32200
C1471       C  0.56840310  0.92128832  0.39247911     0.37100
C1472       C  0.56733728  0.95442553  0.41106058    -0.05100
C1473       C  0.59565959  0.95200668  0.43455185    -0.32100
C1474       C  0.62637823  0.91952295  0.43795430     0.37000
H1475       H  0.60051635  0.86484819  0.38014045     0.17300
O1476       O  0.53851245  0.91966900  0.37163977    -0.59600
H1477       H  0.59349544  0.97466464  0.45126350     0.17400
O1478       O  0.65300793  0.91904662  0.46124889    -0.59700
H1479       H  0.63958081  0.90693089  0.47791320     0.44300
H1480       H  0.52568517  0.89617783  0.37658097     0.44300
C1481       C  0.93337742  0.58464578  0.41012929    -0.04800
C1482       C  0.90110684  0.58567759  0.43088539    -0.32200
C1483       C  0.86998433  0.61802991  0.43311898     0.37100
C1484       C  0.87121483  0.65162684  0.41531315    -0.05100
C1485       C  0.90479576  0.65196361  0.39596783    -0.32100
C1486       C  0.93570402  0.61913130  0.39332166     0.37000
H1487       H  0.90021840  0.56190883  0.44643739     0.17300
O1488       O  0.83919611  0.61670541  0.45359936    -0.59600
H1489       H  0.90737157  0.67786995  0.38279770     0.17400
O1490       O  0.96945691  0.62200923  0.37578349    -0.59700
H1491       H  0.95875065  0.62919907  0.35568731     0.44300
H1492       H  0.81903235  0.60250292  0.44366662     0.44300
C1493       C  0.90693341  0.92573903  0.42316306    -0.04800
C1494       C  0.87053740  0.93298089  0.43992817    -0.32200
C1495       C  0.84235515  0.90636674  0.43993243     0.37100
C1496       C  0.85042344  0.87155211  0.42290348    -0.05100
C1497       C  0.88679795  0.86467560  0.40591661    -0.30500
C1498       C  0.91489800  0.89133005  0.40597590     0.37000
H1499       H  0.86407022  0.95943957  0.45318191     0.17300
O1500       O  0.80710439  0.91489102  0.45661418    -0.59600
H1501       H  0.89363635  0.83852231  0.39236387     0.17400
O1502       O  0.94886180  0.88458257  0.38786085    -0.59700
H1503       H  0.96720287  0.86230732  0.39707037     0.44300
H1504       H  0.78698653  0.93085013  0.44347072     0.44300
C1505       C  0.74286795  0.76674540  0.24133239    -0.04800
C1506       C  0.70619884  0.77287460  0.25783852    -0.32200
C1507       C  0.70672464  0.77234681  0.28882423     0.37100
C1508       C  0.74462752  0.76623512  0.30407346    -0.05100
C1509       C  0.78134883  0.76020465  0.28745700    -0.32100
C1510       C  0.78072682  0.76065790  0.25647115     0.37000
H1511       H  0.67686369  0.77727117  0.24660024     0.17300
O1512       O  0.66989380  0.77865450  0.30383874    -0.59600
H1513       H  0.81084805  0.75539361  0.29847887     0.17400
O1514       O  0.81742070  0.75583764  0.24131474    -0.59700
H1515       H  0.82148978  0.78271883  0.23524474     0.44300
H1516       H  0.66066002  0.75254514  0.30488328     0.44300
C1517       C  0.00283885  0.52042945  0.30025322    -0.04800
C1518       C  0.96704002  0.02319834  0.28425262    -0.32200
C1519       C  0.96477936  0.02267382  0.25338000     0.37100
C1520       C  0.99984626  0.51767093  0.23771011    -0.05100
C1521       C  0.03726992  0.51913858  0.25232725    -0.32100
C1522       C  0.03880894  0.52093684  0.28328502     0.37000
H1523       H  0.93874037  0.02627495  0.29703161     0.17300
O1524       O  0.92667442  0.02613743  0.24060147    -0.59600
H1525       H  0.06542549  0.51941225  0.23977369     0.17400
O1526       O  0.07540224  0.52416787  0.29671369    -0.59700
H1527       H  0.07402058  0.55257912  0.30110469     0.44300
H1528       H  0.91698452  0.05484224  0.23923993     0.44300
C1529       C  0.59588045  0.61646876  0.11428558    -0.04800
C1530       C  0.62758488  0.61569194  0.13514324    -0.32200
C1531       C  0.65483189  0.64313760  0.13384779     0.37100
C1532       C  0.65080587  0.67194977  0.11139365    -0.05100
C1533       C  0.61889990  0.67342009  0.09096139    -0.32100
C1534       C  0.59183624  0.64580974  0.09198494     0.37000
H1535       H  0.63119277  0.59391579  0.15269808     0.17300
O1536       O  0.68495057  0.64187445  0.15484615    -0.59600
H1537       H  0.61561704  0.69563593  0.07372071     0.17400
O1538       O  0.56189340  0.64768833  0.07082771    -0.59700
H1539       H  0.57453420  0.63074124  0.05443668     0.44300
H1540       H  0.67304170  0.66044363  0.17051482     0.44300
C1541       C  0.67243565  0.82692508  0.12940713    -0.04800
C1542       C  0.67446606  0.85697928  0.10829814    -0.32200
C1543       C  0.64369475  0.88958131  0.10632835     0.37100
C1544       C  0.60831617  0.89164175  0.12392439    -0.05100
C1545       C  0.60340250  0.85995700  0.14259515    -0.32100
C1546       C  0.63516046  0.82764688  0.14548000     0.37000
H1547       H  0.70005421  0.85558930  0.09298140     0.17300
O1548       O  0.64805580  0.91904942  0.08655334    -0.59600
H1549       H  0.57521278  0.86053425  0.15527966     0.17400
O1550       O  0.62887457  0.79633330  0.16297205    -0.59700
H1551       H  0.62312594  0.80706299  0.18319836     0.44300
H1552       H  0.66483377  0.93630086  0.09697588     0.44300
C1553       C  0.80820614  0.69801001  0.13078203    -0.04800
C1554       C  0.81173912  0.66780150  0.15209792    -0.32200
C1555       C  0.84282752  0.63526036  0.15031543     0.37100
C1556       C  0.87091183  0.63142324  0.12629375    -0.05100
C1557       C  0.86559354  0.66000079  0.10379194    -0.32100
C1558       C  0.83427570  0.69252358  0.10555812     0.37000
H1559       H  0.78938615  0.66820827  0.16976392     0.17300
O1560       O  0.84528195  0.60748806  0.17236373    -0.59600
H1561       H  0.88541640  0.65696727  0.08439648     0.17400
O1562       O  0.82804951  0.71767740  0.08178197    -0.59700
H1563       H  0.85295632  0.73063678  0.08040362     0.44300
H1564       H  0.82749614  0.58837609  0.16577197     0.44300
C1565       C  0.89015590  0.91301573  0.12522465    -0.04800
C1566       C  0.89703335  0.88071943  0.10581777    -0.32200
C1567       C  0.87129390  0.85201284  0.10614066     0.37100
C1568       C  0.83741211  0.85557236  0.12558802    -0.05100
C1569       C  0.83041623  0.88749807  0.14515216    -0.32100
C1570       C  0.85681390  0.91576450  0.14547328     0.37000
H1571       H  0.92243448  0.87757504  0.09015534     0.17300
O1572       O  0.87810571  0.82168133  0.08619198    -0.59600
H1573       H  0.80454128  0.89029801  0.16039101     0.17400
O1574       O  0.84926723  0.94608804  0.16539191    -0.59700
H1575       H  0.86368374  0.93597520  0.18372254     0.44300
H1576       H  0.90077165  0.80268423  0.09470083     0.44300
C1577       C  0.60089696  0.60151079  0.92830004    -0.04800
C1578       C  0.63881881  0.59289895  0.91328986    -0.32200
C1579       C  0.66657096  0.61987399  0.91251552     0.37100
C1580       C  0.65678921  0.65644100  0.92697627    -0.05100
C1581       C  0.61928837  0.66480089  0.94240056    -0.32100
C1582       C  0.59156566  0.63779160  0.94330603     0.37000
H1583       H  0.64696349  0.56527163  0.90165533     0.17300
O1584       O  0.70261689  0.61038245  0.89693059    -0.59600
H1585       H  0.61153626  0.69247910  0.95401338     0.17400
O1586       O  0.55569459  0.64719677  0.95917370    -0.59700
H1587       H  0.53641443  0.66332349  0.94555799     0.44300
H1588       H  0.69605855  0.61921092  0.87634678     0.44300
C1589       C  0.87672842  0.62344221  0.91615633    -0.04800
C1590       C  0.84883997  0.62612926  0.89259638    -0.32200
C1591       C  0.81733646  0.65825414  0.88987875     0.37100
C1592       C  0.81486522  0.69047282  0.90965581    -0.05100
C1593       C  0.84202517  0.68685809  0.93384782    -0.32100
C1594       C  0.87251915  0.65406268  0.93719918     0.37000
H1595       H  0.85055185  0.60262508  0.87650026     0.17300
O1596       O  0.78834355  0.65693877  0.86838041    -0.59600
H1597       H  0.83880763  0.70870172  0.95121282     0.17400
O1598       O  0.89738084  0.65205456  0.96159742    -0.59700
H1599       H  0.88192407  0.64056609  0.97749700     0.44300
H1600       H  0.77191967  0.63657581  0.87492334     0.44300
C1601       C  0.67754665  0.81815576  0.91068715    -0.04800
C1602       C  0.64634298  0.81852947  0.93229655    -0.32200
C1603       C  0.61574590  0.85112539  0.93609944     0.37100
C1604       C  0.61593481  0.88503982  0.91850760    -0.05100
C1605       C  0.64833916  0.88579644  0.89817974    -0.32100
C1606       C  0.67902942  0.85312054  0.89434184     0.37000
H1607       H  0.64616135  0.79414027  0.94738748     0.17300
O1608       O  0.58596340  0.84929987  0.95728259    -0.59600
H1609       H  0.65029472  0.91201069  0.88521170     0.17400
O1610       O  0.71197256  0.85666645  0.87617460    -0.59700
H1611       H  0.70037117  0.86431008  0.85640318     0.44300
H1612       H  0.59633814  0.86071846  0.97536383     0.44300
C1613       C  0.83274110  0.84984908  0.93422240    -0.04800
C1614       C  0.86564147  0.84670651  0.95404033    -0.32200
C1615       C  0.89357546  0.87367280  0.95311642     0.37100
C1616       C  0.88889862  0.90440817  0.93184576    -0.05100
C1617       C  0.85512928  0.90784373  0.91259563    -0.32100
C1618       C  0.82730789  0.88094903  0.91364639     0.37000
H1619       H  0.86986239  0.82293683  0.97006098     0.17300
O1620       O  0.92521484  0.86955032  0.97308138    -0.59600
H1621       H  0.85069580  0.93088174  0.89599969     0.17400
O1622       O  0.79667503  0.88351611  0.89296123    -0.59700
H1623       H  0.77614693  0.90630047  0.89909563     0.44300
H1624       H  0.94603961  0.84818566  0.96508126     0.44300
C1625       C  0.50205447  0.00248766  0.74220484    -0.04800
C1626       C  0.04265640  0.50702381  0.76127561    -0.32200
C1627       C  0.04145067  0.50503733  0.79224448     0.37100
C1628       C  0.50329804  0.50661456  0.80730864    -0.05100
C1629       C  0.46531363  0.99544021  0.78844829    -0.32100
C1630       C  0.46585613  0.99702802  0.75743708     0.37000
H1631       H  0.07205814  0.50610743  0.75011624     0.17300
O1632       O  0.07780625  0.50192033  0.80740512    -0.59600
H1633       H  0.43701399  0.99124227  0.79957847     0.17400
O1634       O  0.43081664  0.99308354  0.74219928    -0.59700
H1635       H  0.43447483  0.96515803  0.73590279     0.44300
H1636       H  0.08653028  0.47328374  0.81039702     0.44300
C1637       C  0.74918233  0.75715382  0.73634410    -0.04800
C1638       C  0.78590617  0.75699020  0.75216922    -0.32200
C1639       C  0.78614186  0.75693974  0.78319962     0.37100
C1640       C  0.74911307  0.75782348  0.79924235    -0.05100
C1641       C  0.71229396  0.75837393  0.78359907    -0.32100
C1642       C  0.71209154  0.75761906  0.75252861     0.37000
H1643       H  0.81484152  0.75685246  0.74051837     0.17300
O1644       O  0.82252508  0.75786870  0.79764971    -0.59600
H1645       H  0.68359633  0.75863918  0.79557487     0.17400
O1646       O  0.67532559  0.75772480  0.73836027    -0.59700
H1647       H  0.67177365  0.72966052  0.73707149     0.44300
H1648       H  0.83886828  0.73143198  0.79467396     0.44300
C1649       C  0.87791340  0.63919221  0.62524840    -0.04800
C1650       C  0.88215884  0.60869407  0.60431702    -0.32200
C1651       C  0.91279820  0.57583700  0.60709522     0.37100
C1652       C  0.93881386  0.57148983  0.63215276    -0.05100
C1653       C  0.93657657  0.60354469  0.65167979    -0.32100
C1654       C  0.90630504  0.63664056  0.64879130     0.37000
H1655       H  0.86202660  0.61045970  0.58531507     0.17300
O1656       O  0.91751429  0.54869221  0.58466459    -0.59600
H1657       H  0.95924376  0.60389535  0.66882641     0.17400
O1658       O  0.90566059  0.66670927  0.66877113    -0.59700
H1659       H  0.89190192  0.65802763  0.68670892     0.44300
H1660       H  0.93691643  0.55819896  0.57041979     0.44300
C1661       C  0.63600412  0.87636038  0.62488216    -0.04800
C1662       C  0.60476833  0.87625550  0.64624862    -0.32200
C1663       C  0.57291635  0.90810455  0.64927474     0.37100
C1664       C  0.57212811  0.94178746  0.63109801    -0.05100
C1665       C  0.60252599  0.94083076  0.60875017    -0.32100
C1666       C  0.63444077  0.90914759  0.60589764     0.37000
H1667       H  0.60443245  0.85096086  0.66055284     0.17300
O1668       O  0.54097960  0.90469552  0.66843653    -0.59600
H1669       H  0.60109850  0.96391745  0.59235685     0.17400
O1670       O  0.66342560  0.91048369  0.58404542    -0.59700
H1671       H  0.65210614  0.89920625  0.56626217     0.44300
H1672       H  0.55353724  0.89729201  0.68797122     0.44300
C1673       C  0.85846191  0.85478492  0.61572475    -0.04800
C1674       C  0.88822227  0.85436184  0.63798862    -0.32200
C1675       C  0.91558790  0.88163729  0.63775287     0.37100
C1676       C  0.91326370  0.91008756  0.61521585    -0.05100
C1677       C  0.88378933  0.91076095  0.59298858    -0.32100
C1678       C  0.85659856  0.88329948  0.59293518     0.37000
H1679       H  0.89003999  0.83320880  0.65594533     0.17300
O1680       O  0.94310268  0.88164595  0.66043304    -0.59600
H1681       H  0.88217501  0.93257992  0.57550658     0.17400
O1682       O  0.82896981  0.88428230  0.57021978    -0.59700
H1683       H  0.80472597  0.90326234  0.57662219     0.44300
H1684       H  0.96574055  0.85994579  0.65581740     0.44300
C1685       C  0.59725785  0.59958456  0.61558377    -0.04800
C1686       C  0.63418036  0.59189189  0.59944903    -0.32200
C1687       C  0.66226765  0.61852246  0.59935953     0.37100
C1688       C  0.65377735  0.65367684  0.61588808    -0.05100
C1689       C  0.61703045  0.66091186  0.63249203    -0.32100
C1690       C  0.58891552  0.63428340  0.63244017     0.37000
H1691       H  0.64107775  0.56509827  0.58662207     0.17300
O1692       O  0.69822217  0.60929269  0.58356417    -0.59600
H1693       H  0.60994490  0.68726371  0.64580365     0.17400
O1694       O  0.55464545  0.64133853  0.65027944    -0.59700
H1695       H  0.53627594  0.66322072  0.64063323     0.44300
H1696       H  0.69159825  0.61895202  0.56317586     0.44300
loop_ 
_geom_bond_atom_site_label_1 
_geom_bond_atom_site_label_2 
_geom_bond_distance 
_geom_bond_site_symmetry_2 
_ccdc_geom_bond_type 
O1           C17   1.275       .  A
O1           Zn7   2.018       .  S
C2           O18   1.276       .  A
C2           O15   1.275       .  A
C2          C401   1.489       .  S
O3           C16   1.276       .  A
O3          Cd10   2.079       .  S
O4           C22   1.275       .  A
O4          Cd13   2.064       .  S
O5           C19   1.272       .  A
O5           Cd9   2.060       .  S
O6           C17   1.272       .  A
O6           Cd9   2.046       .  S
Zn7          O18   2.021       .  S
Zn7          O20   2.040       .  S
Zn7          O12   1.939       .  S
O8           C19   1.275       .  A
O8          Cd13   2.073       .  S
Cd9          O11   2.047       .  S
Cd9          O12   1.994       .  S
Cd10         O14   2.075       .  S
Cd10         O23   2.077       .  S
Cd10         O12   2.000       .  S
O11          C21   1.273       .  A
O12         Cd13   1.997       .  S
Cd13         O15   2.072       .  S
O14          C21   1.275       .  A
C16          O20   1.277       .  A
C16         C177   1.476       .  S
C17         C389   1.482       .  S
C19         C365   1.487       .  S
C21         C416   1.484       .  S
C22          O23   1.277       .  A
C22         C377   1.488       .  S
C24          C27   1.540       .  S
C24         C392   1.533       .  S
C24         C874   1.537   1_455  S
C24         C452   1.540       .  S
C25          C30   1.546       .  S
C25         C380   1.532       .  S
C25         C453   1.533   1_545  S
C25         C879   1.533       .  S
C26         C872   1.537       .  S
C26          C34   1.383       .  A
C26          C29   1.398       .  A
C27          C38   1.377       .  A
C27        C1302   1.396   1_455  A
C28         C448   1.538   1_545  S
C28          C42   1.381       .  A
C28          C31   1.404       .  A
C29         C449   1.533       .  S
C29          C32   1.380       .  A
C30          C36   1.380       .  A
C30        C1299   1.396   1_545  A
C31         C873   1.533   1_455  S
C31          C39   1.379       .  A
C32          N33   1.354       .  A
C32          H45   1.083       .  S
N33          C34   1.353       .  A
N33         C404   1.440       .  S
C34          H35   1.081       .  S
C36        N1309   1.357       .  A
C36          H46   1.081       .  S
N37          C38   1.358       .  A
N37        C1308   1.358   1_455  A
N37         C353   1.439       .  S
C38          H44   1.081       .  S
C39          N40   1.351       .  A
C39          H41   1.082       .  S
N40          C42   1.349       .  A
N40         C413   1.433       .  S
C42          H43   1.082       .  S
O47          C63   1.272       .  A
O47         Zn53   1.997   1_455  S
C48          O64   1.273       .  A
C48          O61   1.276       .  A
C48         C317   1.488       .  S
O49         C486   1.275   1_556  A
O49         Cd56   2.072       .  S
O50          C68   1.278       .  A
O50        Cd483   2.081       .  S
O51          C65   1.273   1_445  A
O51         Cd55   2.056       .  S
O52          C63   1.273       .  A
O52         Cd55   2.058       .  S
Zn53         O66   2.020       .  S
Zn53        O912   2.002       .  S
Zn53         O58   1.933       .  S
O54         C913   1.279       .  A
O54         Cd59   2.093   1_565  S
Cd55        O481   2.060   1_545  S
Cd55         O58   1.993   1_455  S
Cd56         O60   2.073   1_655  S
Cd56        O917   2.062       .  S
Cd56        O482   1.996       .  S
O57          C67   1.272       .  A
O57        Cd479   2.052       .  S
O58        Cd480   1.992   1_645  S
O58        Cd907   1.999       .  S
Cd59         O61   2.078       .  S
Cd59        O474   2.084   1_545  S
Cd59        O906   1.999       .  S
O60          C67   1.275       .  A
C62          O66   1.274   1_554  A
C62         O473   1.273   1_644  A
C62         C956   1.467       .  S
C63         C305   1.476       .  S
O64        Zn901   2.002       .  S
C65         O902   1.279       .  A
C65         C356   1.491   1_655  S
C67         C332   1.486       .  S
C68          O69   1.274       .  A
C68         C344   1.488       .  S
O69        Cd904   2.062       .  S
C70          C72   1.540       .  S
C70          C74   1.538       .  S
C70          C73   1.537       .  S
C70         C320   1.536       .  S
C71          C75   1.535       .  S
C71          C77   1.539       .  S
C71          C76   1.545       .  S
C71         C329   1.535       .  S
C72          C80   1.383       .  A
C72          C75   1.395       .  A
C73          C84   1.372       .  A
C73          C76   1.395       .  A
C74          C88   1.381       .  A
C74          C77   1.410       .  A
C75          C78   1.379       .  A
C76          C82   1.382       .  A
C77          C85   1.381       .  A
C78          N79   1.354       .  A
C78          H91   1.081       .  S
N79          C80   1.355       .  A
N79         C341   1.439       .  S
C80          H81   1.082       .  S
C82          N83   1.359       .  A
C82          H92   1.081       .  S
N83          C84   1.355       .  A
N83         C368   1.436       .  S
C84          H90   1.082       .  S
C85          N86   1.345       .  A
C85          H87   1.083       .  S
N86          C88   1.348       .  A
N86         C308   1.426       .  S
C88          H89   1.081       .  S
O93         C109   1.272       .  A
O93        Zn947   2.014   1_455  S
C94         O110   1.272       .  A
C94         O107   1.273       .  A
C94         C293   1.482       .  S
O95         C108   1.274       .  A
O95        Cd102   2.063       .  S
O96         C114   1.273       .  A
O96        Cd105   2.061       .  S
O97         C959   1.276   1_455  A
O97        Cd101   2.081       .  S
O98         C109   1.274       .  A
O98        Cd525   2.075       .  S
Zn99        O110   1.998       .  S
Zn99        O112   2.015       .  S
Zn99        O941   2.014       .  S
Zn99        O528   1.943       .  S
O100        C111   1.273       .  A
O100       Cd105   2.052       .  S
Cd101       O103   2.090       .  S
Cd101       O522   2.082   1_545  S
Cd101       O952   2.001   1_455  S
Cd102       O115   2.071       .  S
Cd102       O954   2.062       .  S
Cd102       O104   1.999       .  S
O103        C113   1.280       .  A
O104       Zn523   1.940   1_545  S
O104       Cd105   1.991       .  S
O104       Cd949   2.001       .  S
Cd105       O531   2.058   1_545  S
O106        C113   1.273       .  A
O106       Cd950   2.062   1_455  S
O107       Cd529   2.059       .  S
C108        O536   1.276   1_545  A
C108        C910   1.467       .  S
C109        C272   1.466       .  S
C111        O945   1.276       .  A
C111        C248   1.488       .  S
O112        C532   1.274       .  A
C113        C257   1.489       .  S
C114        O115   1.275       .  A
C114        C284   1.487       .  S
C116        C118   1.539       .  S
C116        C120   1.535       .  S
C116        C119   1.543       .  S
C116        C269   1.532       .  S
C117        C121   1.532       .  S
C117        C123   1.533       .  S
C117        C122   1.547       .  S
C117        C281   1.529       .  S
C118        C126   1.381       .  A
C118        C121   1.399       .  A
C119        C130   1.379       .  A
C119        C122   1.399       .  A
C120        C134   1.385       .  A
C120        C123   1.403       .  A
C121        C124   1.380       .  A
C122        C128   1.383       .  A
C123        C131   1.378       .  A
C124        N125   1.351       .  A
C124        H137   1.082       .  S
N125        C126   1.348       .  A
N125        C296   1.431       .  S
C126        H127   1.082       .  S
C128        N129   1.357       .  A
C128        H138   1.081       .  S
N129        C130   1.358       .  A
N129        C233   1.441       .  S
C130        H136   1.081       .  S
C131        N132   1.351       .  A
C131        H133   1.083       .  S
N132        C134   1.352       .  A
N132        C260   1.436       .  S
C134        H135   1.082       .  S
C139        C141   1.540       .  S
C139        C142   1.539       .  S
C139        C209   1.534       .  S
C139        C991   1.539       .  S
C140        C200   1.530       .  S
C140        C992   1.536   1_455  S
C140        C570   1.538       .  S
C140        C569   1.541       .  S
C141        C573   1.383   1_545  A
C141        C568   1.396   1_545  A
C142        C153   1.375       .  A
C142        C993   1.394       .  A
C143        C987   1.539   1_455  S
C143        C157   1.380       .  A
C143        C146   1.404       .  A
C144        C988   1.536       .  S
C144        C147   1.379       .  A
C144        C565   1.401       .  A
C145        C564   1.544   1_545  S
C145        C990   1.394   1_455  A
C145        C575   1.381   1_545  A
C146        C564   1.536   1_545  S
C146        C154   1.381       .  A
C147        N148   1.351       .  A
C147        H160   1.081       .  S
N148        C149   1.351       .  A
N148        C221   1.433       .  S
C149        C565   1.382       .  A
C149        H574   1.082       .  S
H150        C573   1.082   1_545  S
C151        C569   1.379       .  A
C151       N1424   1.357       .  A
C151        H161   1.082       .  S
N152        C153   1.359       .  A
N152       C1423   1.359   1_545  A
N152        C245   1.442       .  S
C153        H159   1.081       .  S
C154        N155   1.349       .  A
C154        H156   1.082       .  S
N155        C157   1.351       .  A
N155        C185   1.434       .  S
C157        H158   1.081       .  S
O162        C178   1.275       .  A
O162       Zn168   2.015       .  S
C163        O179   1.274       .  A
C163        O176   1.275       .  A
C163        C212   1.487       .  S
O164        C177   1.275       .  A
O164       Cd171   2.081       .  S
O165        C183   1.277       .  A
O165       Cd174   2.069       .  S
O166        C180   1.273       .  A
O166       Cd170   2.067       .  S
O167        C178   1.272       .  A
O167       Cd170   2.044       .  S
Zn168       O179   2.008       .  S
Zn168       O181   2.030       .  S
Zn168       O173   1.941       .  S
O169        C180   1.276       .  A
O169       Cd174   2.084       .  S
Cd170       O172   2.057       .  S
Cd170       O173   1.989       .  S
Cd171       O175   2.068       .  S
Cd171       O184   2.054       .  S
Cd171       O173   1.997       .  S
O172        C182   1.274       .  A
O173       Cd174   2.000       .  S
Cd174       O176   2.073       .  S
O175        C182   1.275       .  A
C177        O181   1.275       .  A
C178        C188   1.481       .  S
C180        C236   1.493       .  S
C182        C197   1.484       .  S
C183        O184   1.273       .  A
C183        C224   1.484       .  S
C185        C186   1.400       .  A
C185        C190   1.406       .  A
C186        C187   1.394       .  A
C186        H191   1.083       .  S
C187        C188   1.415       .  A
C187        O192   1.372       .  S
C188        C189   1.407       .  A
C189        C190   1.398       .  A
C189        H193   1.083       .  S
C190        O194   1.371       .  S
O192        H196   0.992       .  S
O194        H195   0.992       .  S
C197        C198   1.404       .  A
C197        C202   1.409       .  A
C198        C199   1.400       .  A
C198        H203   1.083       .  S
C199        C200   1.415       .  A
C199        O204   1.373       .  S
C200        C201   1.410       .  A
C201        C202   1.397       .  A
C201        H205   1.081       .  S
C202        O206   1.372       .  S
O204        H208   0.991       .  S
O206        H207   0.992       .  S
C209        C210   1.408       .  A
C209        C214   1.417       .  A
C210        C211   1.394       .  A
C210        H215   1.079       .  S
C211        C212   1.410       .  A
C211        O216   1.372       .  S
C212        C213   1.405       .  A
C213        C214   1.405       .  A
C213        H217   1.083       .  S
C214        O218   1.374       .  S
O216        H220   0.992       .  S
O218        H219   0.992       .  S
C221        C222   1.400       .  A
C221        C226   1.405       .  A
C222        C223   1.397       .  A
C222        H227   1.083       .  S
C223        C224   1.415       .  A
C223        O228   1.372       .  S
C224        C225   1.407       .  A
C225        C226   1.398       .  A
C225        H229   1.083       .  S
C226        O230   1.371       .  S
O228        H232   0.992       .  S
O230        H231   0.992       .  S
C233        C234   1.402       .  A
C233        C238   1.408       .  A
C234        C235   1.400       .  A
C234        H239   1.083       .  S
C235        C236   1.416       .  A
C235        O240   1.372       .  S
C236        C237   1.409       .  A
C237        C238   1.403       .  A
C237        H241   1.083       .  S
C238        O242   1.371       .  S
O240        H244   0.992       .  S
O242        H243   0.992       .  S
C245        C250   1.410       .  A
C245        C670   1.402       .  A
C246        C247   1.397       .  A
C246        C669   1.399       .  A
C246        H251   1.083       .  S
C247        C672   1.415       .  A
C247        O252   1.372       .  S
C248        C249   1.408       .  A
C248        C671   1.415       .  A
C249        C250   1.403       .  A
C249        H253   1.083       .  S
C250        O254   1.371       .  S
O252        H256   0.992       .  S
O254        H255   0.992       .  S
C257        C258   1.405       .  A
C257        C262   1.418       .  A
C258        C259   1.398       .  A
C258        H263   1.083       .  S
C259        C260   1.407       .  A
C259        O264   1.371       .  S
C260        C261   1.400       .  A
C261        C262   1.403       .  A
C261        H265   1.083       .  S
C262        O266   1.372       .  S
O264        H268   0.992       .  S
O266        H267   0.992       .  S
C269        C270   1.413       .  A
C269        C274   1.415       .  A
C270        C271   1.394       .  A
C270        H275   1.082       .  S
C271        C272   1.397       .  A
C271        O276   1.372       .  S
C272        C273   1.402       .  A
C273        C274   1.408       .  A
C273        H277   1.084       .  S
C274        O278   1.374       .  S
O276        H280   0.992       .  S
O278        H279   0.992       .  S
C281        C282   1.406       .  A
C281        C286   1.416       .  A
C282        C283   1.397       .  A
C282        H287   1.080       .  S
C283        C284   1.412       .  A
C283        O288   1.372       .  S
C284        C285   1.405       .  A
C285        C286   1.402       .  A
C285        H289   1.083       .  S
C286        O290   1.373       .  S
O288        H292   0.992       .  S
O290        H291   0.992       .  S
C293        C294   1.407       .  A
C293        C298   1.414       .  A
C294        C295   1.395       .  A
C294        H299   1.083       .  S
C295        C296   1.403       .  A
C295        O300   1.371       .  S
C296        C297   1.401       .  A
C297        C298   1.399       .  A
C297        H301   1.083       .  S
C298        O302   1.372       .  S
O300        H304   0.992       .  S
O302        H303   0.992       .  S
C305        C306   1.406       .  A
C305        C310   1.413       .  A
C306        C307   1.397       .  A
C306        H311   1.084       .  S
C307        C308   1.404       .  A
C307        O312   1.371       .  S
C308        C309   1.396       .  A
C309        C310   1.396       .  A
C309        H313   1.083       .  S
C310        O314   1.372       .  S
O312        H316   0.992       .  S
O314        H315   0.992       .  S
C317        C318   1.404       .  A
C317        C322   1.412       .  A
C318        C319   1.403       .  A
C318        H323   1.083       .  S
C319        C320   1.419       .  A
C319        O324   1.373       .  S
C320        C321   1.408       .  A
C321        C322   1.397       .  A
C321        H325   1.080       .  S
C322        O326   1.372       .  S
O324        H328   0.992       .  S
O326        H327   0.992       .  S
C329        C330   1.412       .  A
C329        C334   1.414       .  A
C330        C331   1.397       .  A
C330        H335   1.079       .  S
C331        C332   1.408       .  A
C331        O336   1.372       .  S
C332        C333   1.406       .  A
C333        C334   1.402       .  A
C333        H337   1.083       .  S
C334        O338   1.374       .  S
O336        H340   0.992       .  S
O338        H339   0.992       .  S
C341        C342   1.401       .  A
C341        C346   1.408       .  A
C342        C343   1.399       .  A
C342        H347   1.083       .  S
C343        C344   1.415       .  A
C343        O348   1.372       .  S
C344        C345   1.407       .  A
C345        C346   1.401       .  A
C345        H349   1.083       .  S
C346        O350   1.372       .  S
O348        H352   0.992       .  S
O350        H351   0.992       .  S
C353        C358   1.409   1_455  A
C353       C1626   1.402       .  A
C354        C355   1.400       .  A
C354       C1625   1.400       .  A
C354        H359   1.083       .  S
C355       C1204   1.418   1_545  A
C355        O360   1.372       .  S
C356       C1203   1.418   1_565  A
C356        C781   1.407   1_455  A
C357        C358   1.397       .  A
C357        C780   1.405   1_655  A
C357        H361   1.083       .  S
C358        O362   1.371       .  S
O360        H364   0.992   1_545  S
O362        H363   0.992       .  S
C365        C366   1.405       .  A
C365        C370   1.417       .  A
C366        C367   1.397       .  A
C366        H371   1.083       .  S
C367        C368   1.406       .  A
C367        O372   1.372       .  S
C368        C369   1.401       .  A
C369        C370   1.402       .  A
C369        H373   1.083       .  S
C370        O374   1.372       .  S
O372        H376   0.992       .  S
O374        H375   0.992       .  S
C377        C378   1.404       .  A
C377        C382   1.412       .  A
C378        C379   1.400       .  A
C378        H383   1.083       .  S
C379        C380   1.417       .  A
C379        O384   1.371       .  S
C380        C381   1.407       .  A
C381        C382   1.398       .  A
C381        H385   1.079       .  S
C382        O386   1.372       .  S
O384        H388   0.992       .  S
O386        H387   0.992       .  S
C389        C390   1.405       .  A
C389        C394   1.406       .  A
C390        C391   1.403       .  A
C390        H395   1.083       .  S
C391        C392   1.415       .  A
C391        O396   1.374       .  S
C392        C393   1.412       .  A
C393        C394   1.394       .  A
C393        H397   1.080       .  S
C394        O398   1.372       .  S
O396        H400   0.992       .  S
O398        H399   0.992       .  S
C401        C402   1.409       .  A
C401        C406   1.413       .  A
C402        C403   1.405       .  A
C402        H407   1.083       .  S
C403        C404   1.411       .  A
C403        O408   1.372       .  S
C404        C405   1.400       .  A
C405        C406   1.396       .  A
C405        H409   1.083       .  S
C406        O410   1.371       .  S
O408        H412   0.992       .  S
O410        H411   0.992       .  S
C413        C414   1.402       .  A
C413        C418   1.404       .  A
C414        C415   1.398       .  A
C414        H419   1.083       .  S
C415        C416   1.413       .  A
C415        O420   1.372       .  S
C416        C417   1.409       .  A
C417        C418   1.397       .  A
C417        H421   1.083       .  S
C418        O422   1.372       .  S
O420        H424   0.992       .  S
O422        H423   0.992       .  S
O425        C441   1.273       .  A
O425       Zn431   2.016       .  S
C426        O442   1.272       .  A
C426        O439   1.274       .  A
C426        C825   1.478       .  S
O427        C440   1.276       .  A
O427       Cd434   2.084       .  S
O428        C446   1.274       .  A
O428       Cd437   2.062       .  S
O429        C443   1.274       .  A
O429       Cd433   2.073       .  S
O430        C441   1.274       .  A
O430       Cd433   2.061       .  S
Zn431       O442   1.992       .  S
Zn431       O444   2.010       .  S
Zn431       O436   1.938       .  S
O432        C443   1.275       .  A
O432       Cd437   2.072       .  S
Cd433       O435   2.054       .  S
Cd433       O436   1.989       .  S
Cd434       O438   2.064       .  S
Cd434       O447   2.086       .  S
Cd434       O436   2.000       .  S
O435        C445   1.275       .  A
O436       Cd437   1.990       .  S
Cd437       O439   2.052       .  S
O438        C445   1.275       .  A
C440        O444   1.273       .  A
C440        C601   1.470       .  S
C441        C813   1.486       .  S
C443        C789   1.492       .  S
C445        C840   1.482       .  S
C446        O447   1.278       .  A
C446        C801   1.491       .  S
C448       C1298   1.536   1_455  S
C448        C451   1.542       .  S
C448        C816   1.535       .  S
C449       C1303   1.532       .  S
C449        C454   1.545       .  S
C449        C804   1.532       .  S
C450       C1296   1.536       .  S
C450        C458   1.378       .  A
C450        C453   1.400       .  A
C451        C462   1.379       .  A
C451        C878   1.396   1_465  A
C452        C466   1.384       .  A
C452        C455   1.405       .  A
C453        C456   1.378       .  A
C454        C875   1.396       .  A
C454        C460   1.377       .  A
C455       C1297   1.532   1_455  S
C455        C463   1.380       .  A
C456        N457   1.351       .  A
C456        H469   1.083       .  S
N457        C458   1.351       .  A
N457        C828   1.428       .  S
C458        H459   1.082       .  S
C460        N885   1.358       .  A
C460        H470   1.081       .  S
N461        C884   1.357   1_455  A
N461        C462   1.357   1_545  A
N461        C777   1.438       .  S
C462        H468   1.081       .  S
C463        N464   1.350       .  A
C463        H465   1.081       .  S
N464        C466   1.349       .  A
N464        C837   1.436       .  S
C466        H467   1.083       .  S
O471        C487   1.273       .  A
O471       Zn477   2.013   1_455  S
C472        O488   1.274       .  A
C472        O485   1.277       .  A
C472        C741   1.487       .  S
O473       Cd480   2.061       .  S
O474        C492   1.279       .  A
O475        C489   1.271       .  A
O475       Cd479   2.052       .  S
O476        C487   1.273       .  A
O476       Cd479   2.054       .  S
Zn477      O1336   2.012       .  S
Zn477       O490   2.014       .  S
Zn477       O482   1.940       .  S
O478       C1337   1.276       .  A
O478       Cd483   2.079       .  S
Cd479       O482   1.988   1_455  S
Cd480       O484   2.064       .  S
Cd480      O1341   2.059   1_455  S
O481        C491   1.274       .  A
O482      Cd1331   1.998       .  S
Cd483       O485   2.076       .  S
Cd483      O1330   1.998       .  S
O484        C491   1.275       .  A
C486        O490   1.274   1_554  A
C486       C1380   1.467       .  S
C487        C729   1.484       .  S
O488      Zn1325   2.012       .  S
C489       O1326   1.276   1_455  A
C489        C780   1.487       .  S
C491        C756   1.486       .  S
C492        O493   1.273       .  A
C492        C768   1.489       .  S
O493      Cd1328   2.059       .  S
C494        C496   1.540       .  S
C494        C498   1.537       .  S
C494        C497   1.544       .  S
C494        C744   1.533       .  S
C495        C499   1.538       .  S
C495        C501   1.539       .  S
C495        C500   1.542       .  S
C495        C753   1.532       .  S
C496        C504   1.384       .  A
C496        C499   1.398       .  A
C497        C508   1.378       .  A
C497        C500   1.393       .  A
C498        C512   1.377       .  A
C498        C501   1.399       .  A
C499        C502   1.377       .  A
C500        C506   1.381       .  A
C501        C509   1.381       .  A
C502        N503   1.352       .  A
C502        H515   1.082       .  S
N503        C504   1.355       .  A
N503        C765   1.435       .  S
C504        H505   1.082       .  S
C506        N507   1.359       .  A
C506        H516   1.082       .  S
N507        C508   1.358       .  A
N507        C792   1.443       .  S
C508        H514   1.081       .  S
C509        N510   1.356       .  A
C509        H511   1.082       .  S
N510        C512   1.354       .  A
N510        C732   1.440       .  S
C512        H513   1.080       .  S
O517        C533   1.272       .  A
O517      Zn1371   2.017   1_455  S
C518        O534   1.273       .  A
C518        O531   1.272       .  A
C518        C717   1.483       .  S
O519        C532   1.275       .  A
O519       Cd526   2.069       .  S
O520        C538   1.273       .  A
O520       Cd529   2.062       .  S
O521       C1383   1.275   1_455  A
O521       Cd525   2.074       .  S
O522        C533   1.276       .  A
Zn523      O1365   2.017       .  S
Zn523       O534   2.005       .  S
Zn523       O536   2.024       .  S
O524        C535   1.273       .  A
O524       Cd529   2.054       .  S
Cd525       O527   2.077       .  S
Cd525      O1376   2.001   1_455  S
Cd526      O1378   2.064       .  S
Cd526       O539   2.078       .  S
Cd526       O528   1.997       .  S
O527        C537   1.277       .  A
O528      Cd1373   2.001       .  S
O528       Cd529   1.987       .  S
O530        C537   1.275       .  A
O530      Cd1374   2.064   1_455  S
C532       C1334   1.467       .  S
C533        C696   1.470       .  S
C535       O1369   1.275       .  A
C535        C672   1.487       .  S
C537        C681   1.486       .  S
C538        O539   1.276       .  A
C538        C708   1.489       .  S
C540        C542   1.542       .  S
C540        C544   1.538       .  S
C540        C543   1.543       .  S
C540        C693   1.537       .  S
C541        C545   1.530       .  S
C541        C547   1.527       .  S
C541        C546   1.544       .  S
C541        C705   1.531       .  S
C542        C550   1.383       .  A
C542        C545   1.399       .  A
C543        C554   1.380       .  A
C543        C546   1.400       .  A
C544        C558   1.383       .  A
C544        C547   1.406       .  A
C545        C548   1.378       .  A
C546        C552   1.376       .  A
C547        C555   1.376       .  A
C548        N549   1.350       .  A
C548        H561   1.082       .  S
N549        C550   1.350       .  A
N549        C720   1.433       .  S
C550        H551   1.082       .  S
C552        N553   1.355       .  A
C552        H562   1.080       .  S
N553        C554   1.360       .  A
N553        C657   1.441       .  S
C554        H560   1.082       .  S
C555        N556   1.348       .  A
C555        H557   1.083       .  S
N556        C558   1.351       .  A
N556        C684   1.433       .  S
C558        H559   1.082       .  S
C563        C565   1.539       .  S
C563       C1415   1.537       .  S
C563        C566   1.540       .  S
C563        C633   1.533       .  S
C564       C1416   1.533   1_455  S
C564        C624   1.529       .  S
C566        C577   1.375       .  A
C566       C1417   1.393       .  A
C567       C1411   1.537   1_455  S
C567        C581   1.377       .  A
C567        C570   1.401       .  A
C568       C1412   1.533       .  S
C568        C571   1.378       .  A
C569       C1414   1.393   1_455  A
C570        C578   1.382       .  A
C571        N572   1.352       .  A
C571        H584   1.081       .  S
N572        C573   1.352       .  A
N572        C645   1.436       .  S
C575       N1000   1.359   1_565  A
C575        H585   1.081       .  S
N576        C999   1.357       .  A
N576        C577   1.357       .  A
N576        C669   1.436       .  S
C577        H583   1.082       .  S
C578        N579   1.353       .  A
C578        H580   1.082       .  S
N579        C581   1.351       .  A
N579        C609   1.438       .  S
C581        H582   1.081       .  S
O586        C602   1.274       .  A
O586       Zn592   2.005       .  S
C587        O603   1.272       .  A
C587        O600   1.275       .  A
C587        C636   1.487       .  S
O588        C601   1.275       .  A
O588       Cd595   2.070       .  S
O589        C607   1.277       .  A
O589       Cd598   2.070       .  S
O590        C604   1.272       .  A
O590       Cd594   2.051       .  S
O591        C602   1.272       .  A
O591       Cd594   2.050       .  S
Zn592       O603   2.001       .  S
Zn592       O605   2.017       .  S
Zn592       O597   1.932       .  S
O593        C604   1.277       .  A
O593       Cd598   2.083       .  S
Cd594       O596   2.053       .  S
Cd594       O597   1.988       .  S
Cd595       O599   2.068       .  S
Cd595       O608   2.061       .  S
Cd595       O597   1.994       .  S
O596        C606   1.273       .  A
O597       Cd598   1.999       .  S
Cd598       O600   2.076       .  S
O599        C606   1.274       .  A
C601        O605   1.273       .  A
C602        C612   1.481       .  S
C604        C660   1.487       .  S
C606        C621   1.483       .  S
C607        O608   1.274       .  A
C607        C648   1.484       .  S
C609        C610   1.404       .  A
C609        C614   1.406       .  A
C610        C611   1.397       .  A
C610        H615   1.082       .  S
C611        C612   1.413       .  A
C611        O616   1.372       .  S
C612        C613   1.406       .  A
C613        C614   1.396       .  A
C613        H617   1.083       .  S
C614        O618   1.371       .  S
O616        H620   0.992       .  S
O618        H619   0.992       .  S
C621        C622   1.405       .  A
C621        C626   1.409       .  A
C622        C623   1.399       .  A
C622        H627   1.083       .  S
C623        C624   1.413       .  A
C623        O628   1.373       .  S
C624        C625   1.410       .  A
C625        C626   1.396       .  A
C625        H629   1.080       .  S
C626        O630   1.372       .  S
O628        H632   0.991       .  S
O630        H631   0.992       .  S
C633        C634   1.407       .  A
C633        C638   1.418       .  A
C634        C635   1.395       .  A
C634        H639   1.080       .  S
C635        C636   1.411       .  A
C635        O640   1.372       .  S
C636        C637   1.404       .  A
C637        C638   1.404       .  A
C637        H641   1.083       .  S
C638        O642   1.374       .  S
O640        H644   0.992       .  S
O642        H643   0.992       .  S
C645        C646   1.401       .  A
C645        C650   1.407       .  A
C646        C647   1.399       .  A
C646        H651   1.083       .  S
C647        C648   1.414       .  A
C647        O652   1.372       .  S
C648        C649   1.406       .  A
C649        C650   1.398       .  A
C649        H653   1.083       .  S
C650        O654   1.371       .  S
O652        H656   0.992       .  S
O654        H655   0.992       .  S
C657        C658   1.401       .  A
C657        C662   1.412       .  A
C658        C659   1.399       .  A
C658        H663   1.083       .  S
C659        C660   1.415       .  A
C659        O664   1.372       .  S
C660        C661   1.405       .  A
C661        C662   1.399       .  A
C661        H665   1.083       .  S
C662        O666   1.371       .  S
O664        H668   0.992       .  S
O666        H667   0.992       .  S
C669        C674   1.407       .  A
C670        C671   1.396       .  A
C670        H675   1.083       .  S
C671        O676   1.372       .  S
C672        C673   1.408       .  A
C673        C674   1.401       .  A
C673        H677   1.083       .  S
C674        O678   1.371       .  S
O676        H680   0.992       .  S
O678        H679   0.992       .  S
C681        C682   1.407       .  A
C681        C686   1.416       .  A
C682        C683   1.398       .  A
C682        H687   1.083       .  S
C683        C684   1.408       .  A
C683        O688   1.372       .  S
C684        C685   1.397       .  A
C685        C686   1.398       .  A
C685        H689   1.083       .  S
C686        O690   1.371       .  S
O688        H692   0.992       .  S
O690        H691   0.992       .  S
C693        C694   1.412       .  A
C693        C698   1.417       .  A
C694        C695   1.394       .  A
C694        H699   1.081       .  S
C695        C696   1.397       .  A
C695        O700   1.372       .  S
C696        C697   1.404       .  A
C697        C698   1.410       .  A
C697        H701   1.084       .  S
C698        O702   1.374       .  S
O700        H704   0.992       .  S
O702        H703   0.992       .  S
C705        C706   1.406       .  A
C705        C710   1.416       .  A
C706        C707   1.398       .  A
C706        H711   1.079       .  S
C707        C708   1.412       .  A
C707        O712   1.372       .  S
C708        C709   1.404       .  A
C709        C710   1.402       .  A
C709        H713   1.083       .  S
C710        O714   1.373       .  S
O712        H716   0.992       .  S
O714        H715   0.992       .  S
C717        C718   1.407       .  A
C717        C722   1.414       .  A
C718        C719   1.395       .  A
C718        H723   1.083       .  S
C719        C720   1.404       .  A
C719        O724   1.371       .  S
C720        C721   1.402       .  A
C721        C722   1.399       .  A
C721        H725   1.083       .  S
C722        O726   1.372       .  S
O724        H728   0.992       .  S
O726        H727   0.992       .  S
C729        C730   1.406       .  A
C729        C734   1.413       .  A
C730        C731   1.398       .  A
C730        H735   1.083       .  S
C731        C732   1.411       .  A
C731        O736   1.370       .  S
C732        C733   1.403       .  A
C733        C734   1.398       .  A
C733        H737   1.083       .  S
C734        O738   1.372       .  S
O736        H740   0.992       .  S
O738        H739   0.992       .  S
C741        C742   1.403       .  A
C741        C746   1.411       .  A
C742        C743   1.400       .  A
C742        H747   1.083       .  S
C743        C744   1.417       .  A
C743        O748   1.371       .  S
C744        C745   1.409       .  A
C745        C746   1.399       .  A
C745        H749   1.081       .  S
C746        O750   1.372       .  S
O748        H752   0.991       .  S
O750        H751   0.992       .  S
C753        C754   1.409       .  A
C753        C758   1.416       .  A
C754        C755   1.397       .  A
C754        H759   1.080       .  S
C755        C756   1.410       .  A
C755        O760   1.372       .  S
C756        C757   1.404       .  A
C757        C758   1.401       .  A
C757        H761   1.083       .  S
C758        O762   1.374       .  S
O760        H764   0.992       .  S
O762        H763   0.992       .  S
C765        C766   1.400       .  A
C765        C770   1.406       .  A
C766        C767   1.402       .  A
C766        H771   1.083       .  S
C767        C768   1.418       .  A
C767        O772   1.372       .  S
C768        C769   1.406       .  A
C769        C770   1.397       .  A
C769        H773   1.083       .  S
C770        O774   1.371       .  S
O772        H776   0.992       .  S
O774        H775   0.992       .  S
C777       C1202   1.400       .  A
C777        C782   1.407   1_445  A
C778       C1201   1.402       .  A
C778        C779   1.400       .  A
C778        H783   1.083       .  S
C779       C1628   1.416       .  A
C779        O784   1.372       .  S
C780       C1627   1.416       .  A
C781        C782   1.401       .  A
C781        H785   1.083       .  S
C782        O786   1.371       .  S
O784        H788   0.992       .  S
O786        H787   0.992       .  S
C789        C790   1.407       .  A
C789        C794   1.415       .  A
C790        C791   1.401       .  A
C790        H795   1.083       .  S
C791        C792   1.409       .  A
C791        O796   1.372       .  S
C792        C793   1.404       .  A
C793        C794   1.403       .  A
C793        H797   1.083       .  S
C794        O798   1.372       .  S
O796        H800   0.992       .  S
O798        H799   0.992       .  S
C801        C802   1.404       .  A
C801        C806   1.413       .  A
C802        C803   1.400       .  A
C802        H807   1.083       .  S
C803        C804   1.417       .  A
C803        O808   1.371       .  S
C804        C805   1.406       .  A
C805        C806   1.400       .  A
C805        H809   1.080       .  S
C806        O810   1.372       .  S
O808        H812   0.992       .  S
O810        H811   0.992       .  S
C813        C814   1.404       .  A
C813        C818   1.409       .  A
C814        C815   1.401       .  A
C814        H819   1.083       .  S
C815        C816   1.415       .  A
C815        O820   1.374       .  S
C816        C817   1.412       .  A
C817        C818   1.398       .  A
C817        H821   1.080       .  S
C818        O822   1.372       .  S
O820        H824   0.992       .  S
O822        H823   0.992       .  S
C825        C826   1.406       .  A
C825        C830   1.414       .  A
C826        C827   1.396       .  A
C826        H831   1.083       .  S
C827        C828   1.404       .  A
C827        O832   1.371       .  S
C828        C829   1.398       .  A
C829        C830   1.396       .  A
C829        H833   1.083       .  S
C830        O834   1.372       .  S
O832        H836   0.992       .  S
O834        H835   0.992       .  S
C837        C838   1.402       .  A
C837        C842   1.407       .  A
C838        C839   1.397       .  A
C838        H843   1.083       .  S
C839        C840   1.413       .  A
C839        O844   1.372       .  S
C840        C841   1.407       .  A
C841        C842   1.397       .  A
C841        H845   1.083       .  S
C842        O846   1.372       .  S
O844        H848   0.992       .  S
O846        H847   0.992       .  S
O849        C865   1.275       .  A
O849       Zn855   2.018       .  S
C850        O866   1.276       .  A
C850        O863   1.275       .  A
C850       C1249   1.489       .  S
O851        C864   1.276       .  A
O851       Cd858   2.079       .  S
O852        C870   1.275       .  A
O852       Cd861   2.064       .  S
O853        C867   1.272       .  A
O853       Cd857   2.060       .  S
O854        C865   1.272       .  A
O854       Cd857   2.046       .  S
Zn855       O866   2.021       .  S
Zn855       O868   2.040       .  S
Zn855       O860   1.939       .  S
O856        C867   1.275       .  A
O856       Cd861   2.073       .  S
Cd857       O859   2.047       .  S
Cd857       O860   1.994       .  S
Cd858       O862   2.075       .  S
Cd858       O871   2.077       .  S
Cd858       O860   2.000       .  S
O859        C869   1.273       .  A
O860       Cd861   1.997       .  S
Cd861       O863   2.072       .  S
O862        C869   1.275       .  A
C864        O868   1.277       .  A
C864       C1025   1.476       .  S
C865       C1237   1.482       .  S
C867       C1213   1.487       .  S
C869       C1264   1.484       .  S
C870        O871   1.277       .  A
C870       C1225   1.488       .  S
C872       C1300   1.540       .  S
C872        C875   1.540       .  S
C872       C1240   1.533       .  S
C873       C1301   1.533   1_545  S
C873        C878   1.546       .  S
C873       C1228   1.532       .  S
C874        C882   1.383       .  A
C874        C877   1.398       .  A
C875        C886   1.377       .  A
C876       C1296   1.538   1_545  S
C876        C890   1.381       .  A
C876        C879   1.404       .  A
C877       C1297   1.533       .  S
C877        C880   1.380       .  A
C878        C884   1.380       .  A
C879        C887   1.379       .  A
C880        N881   1.354       .  A
C880        H893   1.083       .  S
N881        C882   1.353       .  A
N881       C1252   1.440       .  S
C882        H883   1.081       .  S
C884        H894   1.081       .  S
N885        C886   1.358       .  A
N885       C1201   1.439       .  S
C886        H892   1.081       .  S
C887        N888   1.351       .  A
C887        H889   1.082       .  S
N888        C890   1.349       .  A
N888       C1261   1.433       .  S
C890        H891   1.082       .  S
O895        C911   1.272       .  A
O895       Zn901   1.997       .  S
C896        O912   1.273       .  A
C896        O909   1.276       .  A
C896       C1165   1.488       .  S
O897       C1334   1.275   1_556  A
O897       Cd904   2.072       .  S
O898        C916   1.278       .  A
O898      Cd1331   2.081       .  S
O899        C913   1.273   1_545  A
O899       Cd903   2.056       .  S
O900        C911   1.273       .  A
O900       Cd903   2.058       .  S
Zn901       O914   2.020       .  S
Zn901       O906   1.933       .  S
O902       Cd907   2.093   1_565  S
Cd903      O1329   2.060   1_545  S
Cd903       O906   1.993       .  S
Cd904       O908   2.073       .  S
Cd904      O1330   1.996       .  S
O905        C915   1.272       .  A
O905      Cd1327   2.052       .  S
O906      Cd1328   1.992   1_545  S
Cd907      O1322   2.084   1_545  S
Cd907       O909   2.078       .  S
O908        C915   1.275       .  A
C910       O1321   1.273   1_544  A
C910        O914   1.274   1_554  A
C911       C1153   1.476       .  S
C913       C1204   1.491       .  S
C915       C1180   1.486       .  S
C916        O917   1.274       .  A
C916       C1192   1.488       .  S
C918        C920   1.540       .  S
C918        C922   1.538       .  S
C918        C921   1.537       .  S
C918       C1168   1.536       .  S
C919        C923   1.535       .  S
C919        C925   1.539       .  S
C919        C924   1.545       .  S
C919       C1177   1.535       .  S
C920        C928   1.383       .  A
C920        C923   1.395       .  A
C921        C932   1.372       .  A
C921        C924   1.395       .  A
C922        C936   1.381       .  A
C922        C925   1.410       .  A
C923        C926   1.379       .  A
C924        C930   1.382       .  A
C925        C933   1.381       .  A
C926        N927   1.354       .  A
C926        H939   1.081       .  S
N927        C928   1.355       .  A
N927       C1189   1.439       .  S
C928        H929   1.082       .  S
C930        N931   1.359       .  A
C930        H940   1.081       .  S
N931        C932   1.355       .  A
N931       C1216   1.436       .  S
C932        H938   1.082       .  S
C933        N934   1.345       .  A
C933        H935   1.083       .  S
N934        C936   1.348       .  A
N934       C1156   1.426       .  S
C936        H937   1.081       .  S
O941        C957   1.272       .  A
C942        O958   1.272       .  A
C942        O955   1.273       .  A
C942       C1141   1.482       .  S
O943        C956   1.274       .  A
O943       Cd950   2.063       .  S
O944        C962   1.273       .  A
O944       Cd953   2.061       .  S
O945       Cd949   2.081       .  S
O946        C957   1.274       .  A
O946      Cd1373   2.075       .  S
Zn947       O958   1.998       .  S
Zn947       O960   2.015       .  S
Zn947      O1376   1.943       .  S
O948        C959   1.273       .  A
O948       Cd953   2.052       .  S
Cd949      O1370   2.082   1_545  S
Cd949       O951   2.090       .  S
Cd950       O963   2.071       .  S
Cd950       O952   1.999       .  S
O951        C961   1.280       .  A
O952      Zn1371   1.940   1_545  S
O952       Cd953   1.991       .  S
Cd953      O1379   2.058   1_545  S
O954        C961   1.273       .  A
O955      Cd1377   2.059       .  S
C956       O1384   1.276   1_545  A
C957       C1120   1.466       .  S
C959       C1096   1.488   1_655  S
O960       C1380   1.274       .  A
C961       C1105   1.489       .  S
C962        O963   1.275       .  A
C962       C1132   1.487       .  S
C964        C966   1.539       .  S
C964        C968   1.535       .  S
C964        C967   1.543       .  S
C964       C1117   1.532       .  S
C965        C969   1.532       .  S
C965        C971   1.533       .  S
C965        C970   1.547       .  S
C965       C1129   1.529       .  S
C966        C974   1.381       .  A
C966        C969   1.399       .  A
C967        C978   1.379       .  A
C967        C970   1.399       .  A
C968        C982   1.385       .  A
C968        C971   1.403       .  A
C969        C972   1.380       .  A
C970        C976   1.383       .  A
C971        C979   1.378       .  A
C972        N973   1.351       .  A
C972        H985   1.082       .  S
N973        C974   1.348       .  A
N973       C1144   1.431       .  S
C974        H975   1.082       .  S
C976        N977   1.357       .  A
C976        H986   1.081       .  S
N977        C978   1.358       .  A
N977       C1081   1.441       .  S
C978        H984   1.081       .  S
C979        N980   1.351       .  A
C979        H981   1.083       .  S
N980        C982   1.352       .  A
N980       C1108   1.436       .  S
C982        H983   1.082       .  S
C987        C989   1.540       .  S
C987        C990   1.539       .  S
C987       C1057   1.534       .  S
C988       C1418   1.538       .  S
C988       C1417   1.541       .  S
C988       C1048   1.530       .  S
C989       C1421   1.383   1_545  A
C989       C1416   1.396   1_545  A
C990       C1001   1.375       .  A
C991       C1005   1.380       .  A
C991        C994   1.404       .  A
C992       C1413   1.401       .  A
C992        C995   1.379       .  A
C993       C1412   1.544   1_545  S
C993       C1423   1.381   1_545  A
C994       C1412   1.536   1_545  S
C994       C1002   1.381       .  A
C995        N996   1.351       .  A
C995       H1008   1.081       .  S
N996        C997   1.351       .  A
N996       C1069   1.433       .  S
C997       C1413   1.382       .  A
C997       H1422   1.082       .  S
H998       C1421   1.082   1_545  S
C999       C1417   1.379       .  A
C999       H1009   1.082       .  S
N1000      C1001   1.359   1_455  A
N1000      C1093   1.442       .  S
C1001      H1007   1.081       .  S
C1002      N1003   1.349       .  A
C1002      H1004   1.082       .  S
N1003      C1005   1.351       .  A
N1003      C1033   1.434       .  S
C1005      H1006   1.081       .  S
O1010      C1026   1.275       .  A
O1010     Zn1016   2.015       .  S
C1011      O1027   1.274       .  A
C1011      O1024   1.275       .  A
C1011      C1060   1.487       .  S
O1012      C1025   1.275       .  A
O1012     Cd1019   2.081       .  S
O1013      C1031   1.277       .  A
O1013     Cd1022   2.069       .  S
O1014      C1028   1.273       .  A
O1014     Cd1018   2.067       .  S
O1015      C1026   1.272       .  A
O1015     Cd1018   2.044       .  S
Zn1016     O1027   2.008       .  S
Zn1016     O1029   2.030       .  S
Zn1016     O1021   1.941       .  S
O1017      C1028   1.276       .  A
O1017     Cd1022   2.084       .  S
Cd1018     O1020   2.057       .  S
Cd1018     O1021   1.989       .  S
Cd1019     O1023   2.068       .  S
Cd1019     O1032   2.054       .  S
Cd1019     O1021   1.997       .  S
O1020      C1030   1.274       .  A
O1021     Cd1022   2.000       .  S
Cd1022     O1024   2.073       .  S
O1023      C1030   1.275       .  A
C1025      O1029   1.275       .  A
C1026      C1036   1.481       .  S
C1028      C1084   1.493       .  S
C1030      C1045   1.484       .  S
C1031      O1032   1.273       .  A
C1031      C1072   1.484       .  S
C1033      C1034   1.400       .  A
C1033      C1038   1.406       .  A
C1034      C1035   1.394       .  A
C1034      H1039   1.083       .  S
C1035      C1036   1.415       .  A
C1035      O1040   1.372       .  S
C1036      C1037   1.407       .  A
C1037      C1038   1.398       .  A
C1037      H1041   1.083       .  S
C1038      O1042   1.371       .  S
O1040      H1044   0.992       .  S
O1042      H1043   0.992       .  S
C1045      C1046   1.404       .  A
C1045      C1050   1.409       .  A
C1046      C1047   1.400       .  A
C1046      H1051   1.083       .  S
C1047      C1048   1.415       .  A
C1047      O1052   1.373       .  S
C1048      C1049   1.410       .  A
C1049      C1050   1.397       .  A
C1049      H1053   1.081       .  S
C1050      O1054   1.372       .  S
O1052      H1056   0.991       .  S
O1054      H1055   0.992       .  S
C1057      C1058   1.408       .  A
C1057      C1062   1.417       .  A
C1058      C1059   1.394       .  A
C1058      H1063   1.079       .  S
C1059      C1060   1.410       .  A
C1059      O1064   1.372       .  S
C1060      C1061   1.405       .  A
C1061      C1062   1.405       .  A
C1061      H1065   1.083       .  S
C1062      O1066   1.374       .  S
O1064      H1068   0.992       .  S
O1066      H1067   0.992       .  S
C1069      C1070   1.400       .  A
C1069      C1074   1.405       .  A
C1070      C1071   1.397       .  A
C1070      H1075   1.083       .  S
C1071      C1072   1.415       .  A
C1071      O1076   1.372       .  S
C1072      C1073   1.407       .  A
C1073      C1074   1.398       .  A
C1073      H1077   1.083       .  S
C1074      O1078   1.371       .  S
O1076      H1080   0.992       .  S
O1078      H1079   0.992       .  S
C1081      C1082   1.402       .  A
C1081      C1086   1.408       .  A
C1082      C1083   1.400       .  A
C1082      H1087   1.083       .  S
C1083      C1084   1.416       .  A
C1083      O1088   1.372       .  S
C1084      C1085   1.409       .  A
C1085      C1086   1.403       .  A
C1085      H1089   1.083       .  S
C1086      O1090   1.371       .  S
O1088      H1092   0.992       .  S
O1090      H1091   0.992       .  S
C1093      C1518   1.402   1_455  A
C1093      C1098   1.410       .  A
C1094      C1517   1.399   1_655  A
C1094      C1095   1.397       .  A
C1094      H1099   1.083       .  S
C1095      C1520   1.415       .  A
C1095      O1100   1.372       .  S
C1096      C1519   1.415   1_455  A
C1096      C1097   1.408       .  A
C1097      C1098   1.403       .  A
C1097      H1101   1.083       .  S
C1098      O1102   1.371       .  S
O1100      H1104   0.992       .  S
O1102      H1103   0.992       .  S
C1105      C1106   1.405       .  A
C1105      C1110   1.418       .  A
C1106      C1107   1.398       .  A
C1106      H1111   1.083       .  S
C1107      C1108   1.407       .  A
C1107      O1112   1.371       .  S
C1108      C1109   1.400       .  A
C1109      C1110   1.403       .  A
C1109      H1113   1.083       .  S
C1110      O1114   1.372       .  S
O1112      H1116   0.992       .  S
O1114      H1115   0.992       .  S
C1117      C1118   1.413       .  A
C1117      C1122   1.415       .  A
C1118      C1119   1.394       .  A
C1118      H1123   1.081       .  S
C1119      C1120   1.397       .  A
C1119      O1124   1.372       .  S
C1120      C1121   1.402       .  A
C1121      C1122   1.408       .  A
C1121      H1125   1.084       .  S
C1122      O1126   1.374       .  S
O1124      H1128   0.992       .  S
O1126      H1127   0.992       .  S
C1129      C1130   1.406       .  A
C1129      C1134   1.416       .  A
C1130      C1131   1.397       .  A
C1130      H1135   1.080       .  S
C1131      C1132   1.412       .  A
C1131      O1136   1.372       .  S
C1132      C1133   1.405       .  A
C1133      C1134   1.402       .  A
C1133      H1137   1.083       .  S
C1134      O1138   1.373       .  S
O1136      H1140   0.992       .  S
O1138      H1139   0.992       .  S
C1141      C1142   1.407       .  A
C1141      C1146   1.414       .  A
C1142      C1143   1.395       .  A
C1142      H1147   1.083       .  S
C1143      C1144   1.403       .  A
C1143      O1148   1.371       .  S
C1144      C1145   1.401       .  A
C1145      C1146   1.399       .  A
C1145      H1149   1.083       .  S
C1146      O1150   1.372       .  S
O1148      H1152   0.992       .  S
O1150      H1151   0.992       .  S
C1153      C1154   1.406       .  A
C1153      C1158   1.413       .  A
C1154      C1155   1.397       .  A
C1154      H1159   1.084       .  S
C1155      C1156   1.404       .  A
C1155      O1160   1.371       .  S
C1156      C1157   1.396       .  A
C1157      C1158   1.396       .  A
C1157      H1161   1.083       .  S
C1158      O1162   1.372       .  S
O1160      H1164   0.992       .  S
O1162      H1163   0.992       .  S
C1165      C1166   1.404       .  A
C1165      C1170   1.412       .  A
C1166      C1167   1.403       .  A
C1166      H1171   1.083       .  S
C1167      C1168   1.419       .  A
C1167      O1172   1.373       .  S
C1168      C1169   1.408       .  A
C1169      C1170   1.397       .  A
C1169      H1173   1.080       .  S
C1170      O1174   1.372       .  S
O1172      H1176   0.992       .  S
O1174      H1175   0.992       .  S
C1177      C1178   1.412       .  A
C1177      C1182   1.414       .  A
C1178      C1179   1.397       .  A
C1178      H1183   1.079       .  S
C1179      C1180   1.408       .  A
C1179      O1184   1.372       .  S
C1180      C1181   1.406       .  A
C1181      C1182   1.402       .  A
C1181      H1185   1.083       .  S
C1182      O1186   1.374       .  S
O1184      H1188   0.992       .  S
O1186      H1187   0.992       .  S
C1189      C1190   1.401       .  A
C1189      C1194   1.408       .  A
C1190      C1191   1.399       .  A
C1190      H1195   1.083       .  S
C1191      C1192   1.415       .  A
C1191      O1196   1.372       .  S
C1192      C1193   1.407       .  A
C1193      C1194   1.401       .  A
C1193      H1197   1.083       .  S
C1194      O1198   1.372       .  S
O1196      H1200   0.992       .  S
O1198      H1199   0.992       .  S
C1201      C1206   1.409       .  A
C1202      C1203   1.400       .  A
C1202      H1207   1.083       .  S
C1203      O1208   1.372       .  S
C1204      C1629   1.407       .  A
C1205      C1628   1.405       .  A
C1205      C1206   1.397       .  A
C1205      H1209   1.083       .  S
C1206      O1210   1.371       .  S
O1208      H1212   0.992   1_545  S
O1210      H1211   0.992       .  S
C1213      C1214   1.405       .  A
C1213      C1218   1.417       .  A
C1214      C1215   1.397       .  A
C1214      H1219   1.083       .  S
C1215      C1216   1.406       .  A
C1215      O1220   1.372       .  S
C1216      C1217   1.401       .  A
C1217      C1218   1.402       .  A
C1217      H1221   1.083       .  S
C1218      O1222   1.372       .  S
O1220      H1224   0.992       .  S
O1222      H1223   0.992       .  S
C1225      C1226   1.404       .  A
C1225      C1230   1.412       .  A
C1226      C1227   1.400       .  A
C1226      H1231   1.083       .  S
C1227      C1228   1.417       .  A
C1227      O1232   1.371       .  S
C1228      C1229   1.407       .  A
C1229      C1230   1.398       .  A
C1229      H1233   1.079       .  S
C1230      O1234   1.372       .  S
O1232      H1236   0.992       .  S
O1234      H1235   0.992       .  S
C1237      C1238   1.405       .  A
C1237      C1242   1.406       .  A
C1238      C1239   1.403       .  A
C1238      H1243   1.083       .  S
C1239      C1240   1.415       .  A
C1239      O1244   1.374       .  S
C1240      C1241   1.412       .  A
C1241      C1242   1.394       .  A
C1241      H1245   1.080       .  S
C1242      O1246   1.372       .  S
O1244      H1248   0.992       .  S
O1246      H1247   0.992       .  S
C1249      C1250   1.409       .  A
C1249      C1254   1.413       .  A
C1250      C1251   1.405       .  A
C1250      H1255   1.083       .  S
C1251      C1252   1.411       .  A
C1251      O1256   1.372       .  S
C1252      C1253   1.400       .  A
C1253      C1254   1.396       .  A
C1253      H1257   1.083       .  S
C1254      O1258   1.371       .  S
O1256      H1260   0.992       .  S
O1258      H1259   0.992       .  S
C1261      C1262   1.402       .  A
C1261      C1266   1.404       .  A
C1262      C1263   1.398       .  A
C1262      H1267   1.083       .  S
C1263      C1264   1.413       .  A
C1263      O1268   1.372       .  S
C1264      C1265   1.409       .  A
C1265      C1266   1.397       .  A
C1265      H1269   1.083       .  S
C1266      O1270   1.372       .  S
O1268      H1272   0.992       .  S
O1270      H1271   0.992       .  S
O1273      C1289   1.273       .  A
O1273     Zn1279   2.016       .  S
C1274      O1290   1.272       .  A
C1274      O1287   1.274       .  A
C1274      C1673   1.478       .  S
O1275      C1288   1.276       .  A
O1275     Cd1282   2.084       .  S
O1276      C1294   1.274       .  A
O1276     Cd1285   2.062       .  S
O1277      C1291   1.274       .  A
O1277     Cd1281   2.073       .  S
O1278      C1289   1.274       .  A
O1278     Cd1281   2.061       .  S
Zn1279     O1290   1.992       .  S
Zn1279     O1292   2.010       .  S
Zn1279     O1284   1.938       .  S
O1280      C1291   1.275       .  A
O1280     Cd1285   2.072       .  S
Cd1281     O1283   2.054       .  S
Cd1281     O1284   1.989       .  S
Cd1282     O1286   2.064       .  S
Cd1282     O1295   2.086       .  S
Cd1282     O1284   2.000       .  S
O1283      C1293   1.275       .  A
O1284     Cd1285   1.990       .  S
Cd1285     O1287   2.052       .  S
O1286      C1293   1.275       .  A
C1288      O1292   1.273       .  A
C1288      C1449   1.470       .  S
C1289      C1661   1.486       .  S
C1291      C1637   1.492       .  S
C1293      C1688   1.482       .  S
C1294      O1295   1.278       .  A
C1294      C1649   1.491       .  S
C1296      C1299   1.542       .  S
C1296      C1664   1.535       .  S
C1297      C1302   1.545       .  S
C1297      C1652   1.532       .  S
C1298      C1306   1.378       .  A
C1298      C1301   1.400       .  A
C1299      C1310   1.379       .  A
C1300      C1314   1.384       .  A
C1300      C1303   1.405       .  A
C1301      C1304   1.378       .  A
C1302      C1308   1.377       .  A
C1303      C1311   1.380       .  A
C1304      N1305   1.351       .  A
C1304      H1317   1.083       .  S
N1305      C1306   1.351       .  A
N1305      C1676   1.428       .  S
C1306      H1307   1.082       .  S
C1308      H1318   1.081       .  S
N1309      C1310   1.357   1_545  A
N1309      C1625   1.438       .  S
C1310      H1316   1.081       .  S
C1311      N1312   1.350       .  A
C1311      H1313   1.081       .  S
N1312      C1314   1.349       .  A
N1312      C1685   1.436       .  S
C1314      H1315   1.083       .  S
O1319      C1335   1.273       .  A
O1319     Zn1325   2.013       .  S
C1320      O1336   1.274       .  A
C1320      O1333   1.277       .  A
C1320      C1589   1.487       .  S
O1321     Cd1328   2.061       .  S
O1322      C1340   1.279       .  A
O1323      C1337   1.271       .  A
O1323     Cd1327   2.052       .  S
O1324      C1335   1.273       .  A
O1324     Cd1327   2.054       .  S
Zn1325     O1338   2.014       .  S
Zn1325     O1330   1.940       .  S
O1326     Cd1331   2.079       .  S
Cd1327     O1330   1.988       .  S
Cd1328     O1332   2.064       .  S
O1329      C1339   1.274       .  A
Cd1331     O1333   2.076       .  S
O1332      C1339   1.275       .  A
C1334      O1338   1.274   1_554  A
C1335      C1577   1.484       .  S
C1337      C1628   1.487       .  S
C1339      C1604   1.486       .  S
C1340      O1341   1.273       .  A
C1340      C1616   1.489       .  S
C1342      C1344   1.540       .  S
C1342      C1346   1.537       .  S
C1342      C1345   1.544       .  S
C1342      C1592   1.533       .  S
C1343      C1347   1.538       .  S
C1343      C1349   1.539       .  S
C1343      C1348   1.542       .  S
C1343      C1601   1.532       .  S
C1344      C1352   1.384       .  A
C1344      C1347   1.398       .  A
C1345      C1356   1.378       .  A
C1345      C1348   1.393       .  A
C1346      C1360   1.377       .  A
C1346      C1349   1.399       .  A
C1347      C1350   1.377       .  A
C1348      C1354   1.381       .  A
C1349      C1357   1.381       .  A
C1350      N1351   1.352       .  A
C1350      H1363   1.082       .  S
N1351      C1352   1.355       .  A
N1351      C1613   1.435       .  S
C1352      H1353   1.082       .  S
C1354      N1355   1.359       .  A
C1354      H1364   1.082       .  S
N1355      C1356   1.358       .  A
N1355      C1640   1.443       .  S
C1356      H1362   1.081       .  S
C1357      N1358   1.356       .  A
C1357      H1359   1.082       .  S
N1358      C1360   1.354       .  A
N1358      C1580   1.440       .  S
C1360      H1361   1.080       .  S
O1365      C1381   1.272       .  A
C1366      O1382   1.273       .  A
C1366      O1379   1.272       .  A
C1366      C1565   1.483       .  S
O1367      C1380   1.275       .  A
O1367     Cd1374   2.069       .  S
O1368      C1386   1.273       .  A
O1368     Cd1377   2.062       .  S
O1369     Cd1373   2.074       .  S
O1370      C1381   1.276       .  A
Zn1371     O1382   2.005       .  S
Zn1371     O1384   2.024       .  S
O1372      C1383   1.273       .  A
O1372     Cd1377   2.054       .  S
Cd1373     O1375   2.077       .  S
Cd1374     O1387   2.078       .  S
Cd1374     O1376   1.997       .  S
O1375      C1385   1.277       .  A
O1376     Cd1377   1.987       .  S
O1378      C1385   1.275       .  A
C1381      C1544   1.470       .  S
C1383      C1520   1.487       .  S
C1385      C1529   1.486       .  S
C1386      O1387   1.276       .  A
C1386      C1556   1.489       .  S
C1388      C1390   1.542       .  S
C1388      C1392   1.538       .  S
C1388      C1391   1.543       .  S
C1388      C1541   1.537       .  S
C1389      C1393   1.530       .  S
C1389      C1395   1.527       .  S
C1389      C1394   1.544       .  S
C1389      C1553   1.531       .  S
C1390      C1398   1.383       .  A
C1390      C1393   1.399       .  A
C1391      C1402   1.380       .  A
C1391      C1394   1.400       .  A
C1392      C1406   1.383       .  A
C1392      C1395   1.406       .  A
C1393      C1396   1.378       .  A
C1394      C1400   1.376       .  A
C1395      C1403   1.376       .  A
C1396      N1397   1.350       .  A
C1396      H1409   1.082       .  S
N1397      C1398   1.350       .  A
N1397      C1568   1.433       .  S
C1398      H1399   1.082       .  S
C1400      N1401   1.355       .  A
C1400      H1410   1.080       .  S
N1401      C1402   1.360       .  A
N1401      C1505   1.441       .  S
C1402      H1408   1.082       .  S
C1403      N1404   1.348       .  A
C1403      H1405   1.083       .  S
N1404      C1406   1.351       .  A
N1404      C1532   1.433       .  S
C1406      H1407   1.082       .  S
C1411      C1413   1.539       .  S
C1411      C1414   1.540       .  S
C1411      C1481   1.533       .  S
C1412      C1472   1.529       .  S
C1414      C1425   1.375       .  A
C1415      C1429   1.377       .  A
C1415      C1418   1.401       .  A
C1416      C1419   1.378       .  A
C1418      C1426   1.382       .  A
C1419      N1420   1.352       .  A
C1419      H1432   1.081       .  S
N1420      C1421   1.352       .  A
N1420      C1493   1.436       .  S
C1423      H1433   1.081       .  S
N1424      C1425   1.357   1_455  A
N1424      C1517   1.436       .  S
C1425      H1431   1.082       .  S
C1426      N1427   1.353       .  A
C1426      H1428   1.082       .  S
N1427      C1429   1.351       .  A
N1427      C1457   1.437       .  S
C1429      H1430   1.081       .  S
O1434      C1450   1.274       .  A
O1434     Zn1440   2.005       .  S
C1435      O1451   1.272       .  A
C1435      O1448   1.275       .  A
C1435      C1484   1.487       .  S
O1436      C1449   1.275       .  A
O1436     Cd1443   2.070       .  S
O1437      C1455   1.277       .  A
O1437     Cd1446   2.070       .  S
O1438      C1452   1.272       .  A
O1438     Cd1442   2.051       .  S
O1439      C1450   1.272       .  A
O1439     Cd1442   2.050       .  S
Zn1440     O1451   2.001       .  S
Zn1440     O1453   2.017       .  S
Zn1440     O1445   1.932       .  S
O1441      C1452   1.277       .  A
O1441     Cd1446   2.083       .  S
Cd1442     O1444   2.053       .  S
Cd1442     O1445   1.988       .  S
Cd1443     O1447   2.068       .  S
Cd1443     O1456   2.061       .  S
Cd1443     O1445   1.994       .  S
O1444      C1454   1.273       .  A
O1445     Cd1446   1.999       .  S
Cd1446     O1448   2.076       .  S
O1447      C1454   1.274       .  A
C1449      O1453   1.273       .  A
C1450      C1460   1.481       .  S
C1452      C1508   1.487       .  S
C1454      C1469   1.483       .  S
C1455      O1456   1.274       .  A
C1455      C1496   1.484       .  S
C1457      C1458   1.404       .  A
C1457      C1462   1.406       .  A
C1458      C1459   1.397       .  A
C1458      H1463   1.082       .  S
C1459      C1460   1.413       .  A
C1459      O1464   1.372       .  S
C1460      C1461   1.406       .  A
C1461      C1462   1.396       .  A
C1461      H1465   1.083       .  S
C1462      O1466   1.371       .  S
O1464      H1468   0.992       .  S
O1466      H1467   0.992       .  S
C1469      C1470   1.405       .  A
C1469      C1474   1.409       .  A
C1470      C1471   1.399       .  A
C1470      H1475   1.083       .  S
C1471      C1472   1.413       .  A
C1471      O1476   1.373       .  S
C1472      C1473   1.410       .  A
C1473      C1474   1.396       .  A
C1473      H1477   1.080       .  S
C1474      O1478   1.372       .  S
O1476      H1480   0.991       .  S
O1478      H1479   0.992       .  S
C1481      C1482   1.407       .  A
C1481      C1486   1.418       .  A
C1482      C1483   1.395       .  A
C1482      H1487   1.080       .  S
C1483      C1484   1.411       .  A
C1483      O1488   1.372       .  S
C1484      C1485   1.404       .  A
C1485      C1486   1.404       .  A
C1485      H1489   1.083       .  S
C1486      O1490   1.374       .  S
O1488      H1492   0.992       .  S
O1490      H1491   0.992       .  S
C1493      C1494   1.401       .  A
C1493      C1498   1.407       .  A
C1494      C1495   1.399       .  A
C1494      H1499   1.083       .  S
C1495      C1496   1.414       .  A
C1495      O1500   1.372       .  S
C1496      C1497   1.406       .  A
C1497      C1498   1.398       .  A
C1497      H1501   1.083       .  S
C1498      O1502   1.371       .  S
O1500      H1504   0.992       .  S
O1502      H1503   0.992       .  S
C1505      C1506   1.401       .  A
C1505      C1510   1.412       .  A
C1506      C1507   1.399       .  A
C1506      H1511   1.083       .  S
C1507      C1508   1.415       .  A
C1507      O1512   1.372       .  S
C1508      C1509   1.405       .  A
C1509      C1510   1.399       .  A
C1509      H1513   1.083       .  S
C1510      O1514   1.371       .  S
O1512      H1516   0.992       .  S
O1514      H1515   0.992       .  S
C1517      C1522   1.407       .  A
C1518      C1519   1.396       .  A
C1518      H1523   1.083       .  S
C1519      O1524   1.372       .  S
C1520      C1521   1.408   1_655  A
C1521      C1522   1.401       .  A
C1521      H1525   1.083       .  S
C1522      O1526   1.371       .  S
O1524      H1528   0.992       .  S
O1526      H1527   0.992       .  S
C1529      C1530   1.407       .  A
C1529      C1534   1.416       .  A
C1530      C1531   1.398       .  A
C1530      H1535   1.083       .  S
C1531      C1532   1.408       .  A
C1531      O1536   1.372       .  S
C1532      C1533   1.397       .  A
C1533      C1534   1.398       .  A
C1533      H1537   1.083       .  S
C1534      O1538   1.371       .  S
O1536      H1540   0.992       .  S
O1538      H1539   0.992       .  S
C1541      C1542   1.412       .  A
C1541      C1546   1.417       .  A
C1542      C1543   1.394       .  A
C1542      H1547   1.081       .  S
C1543      C1544   1.397       .  A
C1543      O1548   1.372       .  S
C1544      C1545   1.404       .  A
C1545      C1546   1.410       .  A
C1545      H1549   1.084       .  S
C1546      O1550   1.374       .  S
O1548      H1552   0.992       .  S
O1550      H1551   0.992       .  S
C1553      C1554   1.406       .  A
C1553      C1558   1.416       .  A
C1554      C1555   1.398       .  A
C1554      H1559   1.079       .  S
C1555      C1556   1.412       .  A
C1555      O1560   1.372       .  S
C1556      C1557   1.404       .  A
C1557      C1558   1.402       .  A
C1557      H1561   1.083       .  S
C1558      O1562   1.373       .  S
O1560      H1564   0.992       .  S
O1562      H1563   0.992       .  S
C1565      C1566   1.407       .  A
C1565      C1570   1.414       .  A
C1566      C1567   1.395       .  A
C1566      H1571   1.083       .  S
C1567      C1568   1.404       .  A
C1567      O1572   1.371       .  S
C1568      C1569   1.402       .  A
C1569      C1570   1.399       .  A
C1569      H1573   1.083       .  S
C1570      O1574   1.372       .  S
O1572      H1576   0.992       .  S
O1574      H1575   0.992       .  S
C1577      C1578   1.406       .  A
C1577      C1582   1.413       .  A
C1578      C1579   1.398       .  A
C1578      H1583   1.083       .  S
C1579      C1580   1.411       .  A
C1579      O1584   1.370       .  S
C1580      C1581   1.403       .  A
C1581      C1582   1.398       .  A
C1581      H1585   1.083       .  S
C1582      O1586   1.372       .  S
O1584      H1588   0.992       .  S
O1586      H1587   0.992       .  S
C1589      C1590   1.403       .  A
C1589      C1594   1.411       .  A
C1590      C1591   1.400       .  A
C1590      H1595   1.083       .  S
C1591      C1592   1.417       .  A
C1591      O1596   1.371       .  S
C1592      C1593   1.409       .  A
C1593      C1594   1.399       .  A
C1593      H1597   1.081       .  S
C1594      O1598   1.372       .  S
O1596      H1600   0.991       .  S
O1598      H1599   0.992       .  S
C1601      C1602   1.409       .  A
C1601      C1606   1.416       .  A
C1602      C1603   1.397       .  A
C1602      H1607   1.080       .  S
C1603      C1604   1.410       .  A
C1603      O1608   1.372       .  S
C1604      C1605   1.404       .  A
C1605      C1606   1.401       .  A
C1605      H1609   1.083       .  S
C1606      O1610   1.374       .  S
O1608      H1612   0.992       .  S
O1610      H1611   0.992       .  S
C1613      C1614   1.400       .  A
C1613      C1618   1.406       .  A
C1614      C1615   1.402       .  A
C1614      H1619   1.083       .  S
C1615      C1616   1.418       .  A
C1615      O1620   1.372       .  S
C1616      C1617   1.406       .  A
C1617      C1618   1.397       .  A
C1617      H1621   1.083       .  S
C1618      O1622   1.371       .  S
O1620      H1624   0.992       .  S
O1622      H1623   0.992       .  S
C1625      C1630   1.407   1_545  A
C1626      C1627   1.400       .  A
C1626      H1631   1.083       .  S
C1627      O1632   1.372       .  S
C1629      C1630   1.401       .  A
C1629      H1633   1.083       .  S
C1630      O1634   1.371       .  S
O1632      H1636   0.992       .  S
O1634      H1635   0.992       .  S
C1637      C1638   1.407       .  A
C1637      C1642   1.415       .  A
C1638      C1639   1.401       .  A
C1638      H1643   1.083       .  S
C1639      C1640   1.409       .  A
C1639      O1644   1.372       .  S
C1640      C1641   1.404       .  A
C1641      C1642   1.403       .  A
C1641      H1645   1.083       .  S
C1642      O1646   1.372       .  S
O1644      H1648   0.992       .  S
O1646      H1647   0.992       .  S
C1649      C1650   1.404       .  A
C1649      C1654   1.413       .  A
C1650      C1651   1.400       .  A
C1650      H1655   1.083       .  S
C1651      C1652   1.417       .  A
C1651      O1656   1.371       .  S
C1652      C1653   1.406       .  A
C1653      C1654   1.400       .  A
C1653      H1657   1.080       .  S
C1654      O1658   1.372       .  S
O1656      H1660   0.992       .  S
O1658      H1659   0.992       .  S
C1661      C1662   1.404       .  A
C1661      C1666   1.409       .  A
C1662      C1663   1.401       .  A
C1662      H1667   1.083       .  S
C1663      C1664   1.415       .  A
C1663      O1668   1.374       .  S
C1664      C1665   1.412       .  A
C1665      C1666   1.398       .  A
C1665      H1669   1.080       .  S
C1666      O1670   1.372       .  S
O1668      H1672   0.992       .  S
O1670      H1671   0.992       .  S
C1673      C1674   1.406       .  A
C1673      C1678   1.414       .  A
C1674      C1675   1.396       .  A
C1674      H1679   1.083       .  S
C1675      C1676   1.404       .  A
C1675      O1680   1.371       .  S
C1676      C1677   1.398       .  A
C1677      C1678   1.396       .  A
C1677      H1681   1.083       .  S
C1678      O1682   1.372       .  S
O1680      H1684   0.992       .  S
O1682      H1683   0.992       .  S
C1685      C1686   1.402       .  A
C1685      C1690   1.407       .  A
C1686      C1687   1.397       .  A
C1686      H1691   1.083       .  S
C1687      C1688   1.413       .  A
C1687      O1692   1.372       .  S
C1688      C1689   1.407       .  A
C1689      C1690   1.397       .  A
C1689      H1693   1.083       .  S
C1690      O1694   1.372       .  S
O1692      H1696   0.992       .  S
O1694      H1695   0.992       .  S
