geometry optimzed in LAMMPS
_audit_creation_date              2020-11-30 
_audit_creation_method            'lammps2cif' 
_symmetry_space_group_name_H-M    'P1' 
_symmetry_Int_Tables_number       1 
_symmetry_cell_setting            triclinic 
loop_ 
_symmetry_equiv_pos_as_xyz 
  x,y,z 
_cell_length_a                    44.99712984 
_cell_length_b                    45.01268774410581 
_cell_length_c                    45.08004577496454 
_cell_angle_alpha                 89.29359070846017 
_cell_angle_beta                  89.28238286993827 
_cell_angle_gamma                 89.5180391982993 
loop_ 
_atom_site_label 
_atom_site_type_symbol 
_atom_site_fract_x 
_atom_site_fract_y 
_atom_site_fract_z 
_atom_site_charge 
O1          O  0.93271626  0.84530129  0.43279988    -0.57400
C2          C  0.98656195  0.84193077  0.38273001     0.75200
O3          O  0.00112524  0.78628561  0.44593741    -0.58500
C4          C  0.90601916  0.83774389  0.42934123     0.75200
C5          C  0.95241795  0.75323424  0.37529953     0.77600
Cd6        Cd  0.95630156  0.79925397  0.41930155     1.37500
O7          O  0.95900762  0.83771957  0.38006060    -0.57400
O8          O  0.93491748  0.75239173  0.39763925    -0.56200
C9          C  0.99129233  0.78979524  0.47196427     0.77600
O10         O  0.97214343  0.77285909  0.37581683    -0.58600
O11         O  0.99972514  0.82726319  0.40281812    -0.57000
O12         O  0.90139103  0.81052085  0.42404207    -0.57000
O13         O  0.96341138  0.79291753  0.47481595    -0.56200
O14         O  0.89033757  0.88775826  0.43054740    -0.57400
C15         C  0.88386907  0.95093503  0.38480762     0.75200
O16         O  0.79632400  0.89284730  0.39150326    -0.58500
C17         C  0.88284494  0.86090654  0.42842379     0.75200
C18         C  0.82629939  0.94493965  0.46639451     0.77600
Cd19       Cd  0.84460138  0.91058939  0.41481186     1.37500
O20         O  0.88876440  0.92328885  0.38486983    -0.57400
O21         O  0.84161458  0.92141064  0.46938403    -0.56200
C22         C  0.80532546  0.89873260  0.36521720     0.77600
O23         O  0.81601357  0.94995756  0.44084132    -0.58600
O24         O  0.86180797  0.96007743  0.39981758    -0.57000
O25         O  0.85572158  0.85597750  0.42289944    -0.57000
O26         O  0.83135057  0.90853367  0.36317376    -0.56200
O27         O  0.60387441  0.89994577  0.03297219    -0.57400
C28         C  0.61002261  0.95898706  0.08110744     0.75200
O29         O  0.69686681  0.89583433  0.06730981    -0.58500
C30         C  0.61073451  0.87286659  0.03655766     0.75200
C31         C  0.66668133  0.95709611  0.99679417     0.77600
Cd32       Cd  0.65017097  0.92114554  0.04847550     1.37500
O33         O  0.60473119  0.93179581  0.07746833    -0.57400
O34         O  0.65399726  0.93234624  0.99386944    -0.56200
C35         C  0.69242853  0.90411303  0.09386544     0.77600
O36         O  0.67580660  0.96278473  0.02246348    -0.58600
O37         O  0.63350797  0.96901225  0.06914966    -0.57000
O38         O  0.63765458  0.86705961  0.04260866    -0.57000
O39         O  0.66943802  0.91960980  0.09833844    -0.56200
O40         O  0.56063752  0.85872827  0.03265585    -0.57400
C41         C  0.49943528  0.85666136  0.07749512     0.68000
O42         O  0.50270879  0.78031234  0.02207108    -0.58500
C43         C  0.58717172  0.85046816  0.03675518     0.75200
C44         C  0.54216787  0.77432332  0.09886895     0.77600
Cd45       Cd  0.53635728  0.81374872  0.04857600     1.37500
O46         O  0.52703237  0.85498330  0.08187087    -0.57400
O47         O  0.52208593  0.79386426  0.09639617    -0.56200
C48         C  0.50534365  0.79357429  0.99735317     0.77600
O49         O  0.55921218  0.77082373  0.07645293    -0.58600
O50         O  0.48878548  0.83947486  0.05840525    -0.57000
O51         O  0.59134341  0.82329564  0.04365153    -0.57000
O52         O  0.52582377  0.81249825  0.99501966    -0.56200
C53         C  0.74529360  0.85863231  0.20234206     0.86900
C54         C  0.74568834  0.87836838  0.23058929    -0.53300
C55         C  0.74945148  0.86272048  0.25684666     0.09800
C56         C  0.75227220  0.82886324  0.25222189     0.20800
C57         C  0.77477534  0.84169699  0.20445029    -0.54000
C58         C  0.77845246  0.82552795  0.22997960     0.09900
C59         C  0.72082223  0.83637827  0.20956114    -0.53600
C60         C  0.72432627  0.82059686  0.23505646     0.10500
H61         H  0.74497029  0.90238746  0.23044158     0.15000
H62         H  0.75473235  0.81561501  0.27274301     0.00800
H63         H  0.79188211  0.84283252  0.18740035     0.15300
H64         H  0.70138631  0.83386249  0.19572600     0.15100
C65         C  0.91136312  0.70841646  0.26665983     0.86900
C66         C  0.89485672  0.73808573  0.26136233    -0.53300
C67         C  0.87388522  0.73807202  0.23952517     0.09800
C68         C  0.87158175  0.70752032  0.22470794     0.20800
C69         C  0.88596783  0.68591445  0.27183624    -0.54000
C70         C  0.86549419  0.68561917  0.25017191     0.09900
C71         C  0.92413550  0.70023434  0.23588288    -0.53600
C72         C  0.90345608  0.70017949  0.21371302     0.10500
H73         H  0.89964050  0.75745390  0.27447967     0.15000
H74         H  0.85444821  0.70593304  0.20748512     0.00800
H75         H  0.88315300  0.67107296  0.29064650     0.15300
H76         H  0.94708144  0.69429481  0.23215763     0.15100
C77         C  0.58297925  0.73057567  0.21237757     0.86900
C78         C  0.60413633  0.75576128  0.22084522    -0.53300
C79         C  0.62104756  0.74993215  0.24519458     0.09800
C80         C  0.61565569  0.71904258  0.25887350     0.20800
C81         C  0.60453259  0.70378967  0.20883876    -0.54000
C82         C  0.62122849  0.69763723  0.23323210     0.09900
C83         C  0.56501922  0.72292352  0.24062823    -0.53600
C84         C  0.58200873  0.71762201  0.26514762     0.10500
H85         H  0.60722506  0.77559989  0.20723378     0.15000
H86         H  0.62986711  0.71402204  0.27822918     0.00800
H87         H  0.60888887  0.69213548  0.18835115     0.15300
H88         H  0.54097255  0.72095761  0.24095956     0.15100
O89         O  0.56315233  0.56851284  0.43560913    -0.57400
C90         C  0.49875643  0.57724160  0.39186520     0.75200
O91         O  0.50728883  0.64949349  0.45350173    -0.58500
C92         C  0.58945663  0.57571203  0.42875135     0.75200
C93         C  0.54800070  0.65538787  0.37296605     0.77600
Cd94       Cd  0.53891314  0.61501301  0.42243495     1.37500
O95         O  0.52657297  0.57448890  0.38919368    -0.57400
O96         O  0.52792518  0.63616943  0.37465487    -0.56200
C97         C  0.50826603  0.63331693  0.47660116     0.77600
O98         O  0.56353697  0.65833029  0.39614440    -0.58600
O99         O  0.48921520  0.59617860  0.41024178    -0.57000
O100        O  0.59382922  0.60292319  0.42246673    -0.57000
O101        O  0.52683361  0.61210885  0.47610172    -0.56200
O102        O  0.60496031  0.52539147  0.42804174    -0.57400
C103        C  0.60429425  0.46966018  0.37613059     0.75200
O104        O  0.69330623  0.52885701  0.38063307    -0.58500
C105        C  0.61220233  0.55231962  0.42494748     0.75200
C106        C  0.66706561  0.46450040  0.45533203     0.77600
Cd107      Cd  0.64905302  0.50301653  0.40584482     1.37500
O108        O  0.60332840  0.49767426  0.37707751    -0.57400
O109        O  0.65733947  0.49054624  0.45975897    -0.56200
C110        C  0.68675319  0.52003625  0.35486295     0.77600
O111        O  0.67340919  0.45832806  0.42869759    -0.58600
O112        O  0.62535026  0.45687467  0.38968160    -0.57000
O113        O  0.63845111  0.55728122  0.41563997    -0.57000
O114        O  0.66541721  0.50208700  0.35407070    -0.56200
O115        O  0.92015962  0.58329135  0.02805569    -0.57400
C116        C  0.97264814  0.58947085  0.07808105     0.75200
O117        O  0.97772021  0.66171808  0.01332021    -0.58500
C118        C  0.89324598  0.59123155  0.02565623     0.75200
C119        C  0.92458654  0.66687136  0.09116146     0.77600
Cd120      Cd  0.94032670  0.63023411  0.04120818     1.37500
O121        O  0.94495843  0.58760481  0.07492119    -0.57400
O122        O  0.90590127  0.66305541  0.07068710    -0.56200
C123        C  0.97580766  0.64794323  0.98916559     0.77600
O124        O  0.95086731  0.65842790  0.08580701    -0.58600
O125        O  0.98607804  0.60854195  0.06217236    -0.57000
O126        O  0.88748257  0.61889131  0.02764491    -0.57000
O127        O  0.95468355  0.62979691  0.98760728    -0.56200
O128        O  0.86635069  0.50884468  0.07192894    -0.57400
C129        C  0.87045486  0.56817301  0.02381597     0.75200
O130        O  0.79952577  0.48556696  0.00300192    -0.58500
C131        C  0.86551970  0.48091371  0.07008219     0.75200
C132        C  0.78625398  0.53507526  0.07628526     0.77600
Cd133      Cd  0.83047936  0.51931139  0.03308129     1.37500
O134        O  0.87840459  0.54120062  0.02457670    -0.57400
O135        O  0.80334417  0.51295720  0.07905519    -0.56200
C136        C  0.81776030  0.48510777  0.98143624     0.77600
O137        O  0.78719299  0.54889664  0.05153197    -0.58600
O138        O  0.84269142  0.57345599  0.02415354    -0.57000
O139        O  0.84907423  0.47031315  0.05034312    -0.57000
O140        O  0.83829931  0.50404262  0.98163291    -0.56200
C141        C  0.74812873  0.57919674  0.19132012     0.86900
C142        C  0.73652671  0.55711151  0.21569455    -0.53300
C143        C  0.73161199  0.56991604  0.24291140     0.09800
C144        C  0.73945656  0.60315707  0.24335476     0.20800
C145        C  0.72494525  0.60435750  0.19171148    -0.54000
C146        C  0.72092329  0.61749161  0.21848079     0.09900
C147        C  0.77625250  0.59131342  0.20538268    -0.53600
C148        C  0.77183491  0.60435536  0.23217077     0.10500
H149        H  0.73408560  0.53350238  0.21288819     0.15000
H150        H  0.73582474  0.61368756  0.26528059     0.00800
H151        H  0.71178270  0.61017609  0.17246929     0.15300
H152        H  0.79769642  0.59131478  0.19401801     0.15100
O153        O  0.59653218  0.00451650  0.10388604    -0.57400
C154        C  0.54578284  0.06365178  0.09939625     0.75200
O155        O  0.52603824  0.97589563  0.16747184    -0.58500
C156        C  0.59049075  0.97765961  0.09923441     0.75200
C157        C  0.60102544  0.02141424  0.18219356     0.77600
Cd158      Cd  0.55530218  0.01350510  0.13893386     1.37500
O159        O  0.54474665  0.03675295  0.09181611    -0.57400
O160        O  0.59853617  0.99856265  0.16655730    -0.56200
C161        C  0.50165162  0.98107884  0.15476048     0.77600
O162        O  0.57968556  0.04006707  0.18108499    -0.58600
O163        O  0.54914535  0.06853921  0.12685090    -0.57000
O164        O  0.56735066  0.96751994  0.11180143    -0.57000
O165        O  0.50057797  0.00425506  0.13869779    -0.56200
O166        O  0.54271827  0.07924183  0.04946626    -0.57400
C167        C  0.58632816  0.08246754  0.99023212     0.75200
O168        O  0.52606829  0.15156474  0.98584794    -0.58500
C169        C  0.54540234  0.08691403  0.07612312     0.75200
C170        C  0.60434308  0.16689827  0.03166240     0.77600
Cd171      Cd  0.55514790  0.12537850  0.02526558     1.37500
O172        O  0.58932513  0.08377822  0.01795987    -0.57400
O173        O  0.60405484  0.14534585  0.01408328    -0.56200
C174        C  0.50117751  0.14041425  0.99266120     0.77600
O175        O  0.58014877  0.17135003  0.04588449    -0.58600
O176        O  0.56771042  0.10012560  0.97851389    -0.57000
O177        O  0.54989666  0.11434709  0.08061681    -0.57000
O178        O  0.49996776  0.12636826  0.01709791    -0.56200
C179        C  0.76776901  0.06367464  0.23731064     0.86900
C180        C  0.74080612  0.04315646  0.23254472    -0.53300
C181        C  0.71497482  0.05782538  0.22576403     0.09800
C182        C  0.71828552  0.09147104  0.22371470     0.20800
C183        C  0.76937426  0.08269284  0.20822038    -0.54000
C184        C  0.74315781  0.09622872  0.20022002     0.09900
C185        C  0.75758450  0.08685566  0.25985511    -0.53600
C186        C  0.73203662  0.10137438  0.25289969     0.10500
H187        H  0.74239547  0.01915784  0.23228831     0.15000
H188        H  0.69655544  0.10221933  0.21932800     0.00800
H189        H  0.78952330  0.08721206  0.19573840     0.15300
H190        H  0.77021328  0.09215987  0.27947686     0.15100
O191        O  0.89754354  0.07189318  0.44723473    -0.57400
C192        C  0.93774417  0.08360975  0.38674750     0.75200
O193        O  0.88758822  0.16544362  0.41173193    -0.58500
C194        C  0.88778924  0.07925126  0.47248796     0.75200
C195        C  0.96255198  0.14495131  0.47080822     0.77600
Cd196      Cd  0.91623898  0.12118991  0.43363376     1.37500
O197        O  0.93889767  0.07652324  0.41393203    -0.57400
O198        O  0.96903534  0.13374272  0.44592602    -0.56200
C199        C  0.86281030  0.15214504  0.41385199     0.77600
O200        O  0.93524897  0.14936394  0.47605449    -0.58600
O201        O  0.93015147  0.11022346  0.38061616    -0.57000
O202        O  0.89282954  0.10547821  0.48066786    -0.57000
O203        O  0.86372187  0.12613448  0.42438942    -0.56200
O204        O  0.94421967  0.03358682  0.37249201    -0.57400
C205        C  0.90162269  0.97121531  0.36669858     0.75200
O206        O  0.90501935  0.03745462  0.28442863    -0.58500
C207        C  0.94101090  0.06034602  0.36427195     0.75200
C208        C  0.98232280  0.97596783  0.30638339     0.77600
Cd209      Cd  0.93114472  0.01053751  0.32609190     1.37500
O210        O  0.89562485  0.99863609  0.36564931    -0.57400
O211        O  0.98486322  0.99743242  0.32400426    -0.56200
C212        C  0.88106615  0.02293473  0.28770814     0.77600
O213        O  0.95773545  0.97414131  0.29326184    -0.58600
O214        O  0.92248771  0.96201899  0.35009001    -0.57000
O215        O  0.93723378  0.06500920  0.33674601    -0.57000
O216        O  0.88176793  0.00197472  0.30653292    -0.56200
C217        C  0.69330091  0.21036548  0.38992237     0.86900
C218        C  0.70342702  0.23862035  0.37359792    -0.53300
C219        C  0.72530667  0.23473007  0.35268655     0.09800
C220        C  0.73594486  0.20215126  0.35093906     0.20800
C221        C  0.68516355  0.19002584  0.36376507    -0.54000
C222        C  0.70753884  0.18473048  0.34392980     0.09900
C223        C  0.72184326  0.19680555  0.40309717    -0.53600
C224        C  0.74422246  0.19270405  0.38266398     0.10500
H225        H  0.69192491  0.25975671  0.37634672     0.15000
H226        H  0.75446646  0.19838566  0.33517657     0.00800
H227        H  0.66292754  0.18317569  0.35919380     0.15300
H228        H  0.72431598  0.19110864  0.42637772     0.15100
O229        O  0.58344966  0.42491067  0.35865808    -0.57400
C230        C  0.53280736  0.37044616  0.35863409     0.75200
O231        O  0.51783459  0.45991807  0.29310418    -0.58500
C232        C  0.58298854  0.45293758  0.35890506     0.75200
C233        C  0.59332077  0.40694786  0.27740277     0.77600
Cd234      Cd  0.54608286  0.41978463  0.31970516     1.37500
O235        O  0.53054989  0.39741357  0.36589577    -0.57400
O236        O  0.59104180  0.43018779  0.29247053    -0.56200
C237        C  0.49378239  0.45602220  0.30735092     0.77600
O238        O  0.57053393  0.39037101  0.27784503    -0.58600
O239        O  0.53884284  0.36524590  0.33156972    -0.57000
O240        O  0.56417081  0.46578212  0.34247180    -0.57000
O241        O  0.49211706  0.43243034  0.32269058    -0.56200
O242        O  0.58051827  0.34624493  0.43857361    -0.57400
C243        C  0.53137138  0.34745869  0.38203537     0.75200
O244        O  0.56356605  0.26347340  0.41274051    -0.58500
C245        C  0.57701206  0.34994456  0.46608749     0.75200
C246        C  0.48868009  0.29689503  0.46885914     0.77600
Cd247      Cd  0.54087096  0.31033434  0.43342812     1.37500
O248        O  0.52616390  0.35530314  0.40839294    -0.57400
O249        O  0.48734691  0.31493775  0.44723947    -0.56200
C250        C  0.58638708  0.26498716  0.42906510     0.77600
O251        O  0.51205307  0.28130055  0.47068434    -0.58600
O252        O  0.53793419  0.32024853  0.37808633    -0.57000
O253        O  0.55512933  0.33712832  0.47846339    -0.57000
O254        O  0.58638734  0.28586592  0.44743200    -0.56200
C255        C  0.77000474  0.22090854  0.07798462     0.86900
C256        C  0.75867913  0.24570252  0.09803800    -0.53300
C257        C  0.73145078  0.24084122  0.11014182     0.09800
C258        C  0.71705469  0.21185842  0.10042279     0.20800
C259        C  0.76682314  0.19193755  0.09591183    -0.54000
C260        C  0.73917188  0.18659511  0.10810913     0.09900
C261        C  0.74508076  0.21872524  0.05437711    -0.53600
C262        C  0.71736780  0.21333225  0.06642247     0.10500
H263        H  0.77176839  0.26503304  0.10345208     0.15000
H264        H  0.69448616  0.20998811  0.10921057     0.00800
H265        H  0.78601761  0.17765101  0.09942044     0.15300
H266        H  0.74831989  0.22176955  0.03078101     0.15100
O267        O  0.93524263  0.40305615  0.08928494    -0.57400
C268        C  0.88222195  0.46203064  0.09054346     0.75200
O269        O  0.89320525  0.39883411  0.17710254    -0.58500
C270        C  0.93028034  0.37632641  0.09655980     0.75200
C271        C  0.96183112  0.46109611  0.15367821     0.77600
Cd272      Cd  0.91330490  0.42585742  0.13305275     1.37500
O273        O  0.88032427  0.43406137  0.09031206    -0.57400
O274        O  0.96683756  0.43833458  0.13818491    -0.56200
C275        C  0.86767938  0.41105250  0.17602981     0.77600
O276        O  0.93557492  0.46463958  0.16320355    -0.58600
O277        O  0.89874913  0.47310856  0.10988460    -0.57000
O278        O  0.91996065  0.37165345  0.12249662    -0.57000
O279        O  0.86428552  0.43074273  0.15622019    -0.56200
O280        O  0.94003021  0.35968887  0.04781115    -0.57400
C281        C  0.89168309  0.35268192  0.98889101     0.75200
O282        O  0.95569326  0.28520468  0.98835798    -0.58500
C283        C  0.93324987  0.35289325  0.07431245     0.75200
C284        C  0.88361675  0.26668246  0.03863369     0.77600
Cd285      Cd  0.92595067  0.31315097  0.02557747     1.37500
O286        O  0.88887929  0.35251271  0.01675683    -0.57400
O287        O  0.90774025  0.26807809  0.05291662    -0.56200
C288        C  0.98006581  0.29784803  0.99320896     0.77600
O289        O  0.88029523  0.28549763  0.01793770    -0.58600
O290        O  0.91073617  0.33505937  0.97787513    -0.57000
O291        O  0.92641473  0.32601060  0.07951147    -0.57000
O292        O  0.98080391  0.31406933  0.01588385    -0.56200
C293        C  0.75959791  0.35878839  0.22444539     0.86900
C294        C  0.73060387  0.37780500  0.22516611    -0.53300
C295        C  0.70512266  0.36168607  0.22996158     0.09800
C296        C  0.71118416  0.32805726  0.23362422     0.20800
C297        C  0.75853401  0.34218036  0.25436549    -0.54000
C298        C  0.73380192  0.32521356  0.25912227     0.09900
C299        C  0.75322060  0.33597217  0.20055859    -0.53600
C300        C  0.72839910  0.31960367  0.20535823     0.10500
H301        H  0.72944800  0.40173991  0.22322547     0.15000
H302        H  0.69122396  0.31474194  0.23715855     0.00800
H303        H  0.77669723  0.34306295  0.26995626     0.15300
H304        H  0.76732216  0.33308792  0.18102096     0.15100
O305        O  0.92398802  0.41368045  0.86793505    -0.57400
C306        C  0.98350723  0.36992747  0.86319205     0.75200
O307        O  0.92760696  0.38255666  0.77419526    -0.58500
C308        C  0.89725279  0.41224397  0.85997030     0.75200
C309        C  0.98285397  0.45472990  0.80839027     0.77600
Cd310      Cd  0.94804247  0.40194980  0.82164390     1.37500
O311        O  0.95571632  0.36643769  0.86228015    -0.57400
O312        O  0.95682505  0.45747123  0.81905022    -0.56200
C313        C  0.93975666  0.35700884  0.77638668     0.77600
O314        O  0.99026802  0.42905012  0.79997824    -0.58600
O315        O  0.99483624  0.38862825  0.84532206    -0.57000
O316        O  0.89280033  0.40841909  0.83252040    -0.57000
O317        O  0.95610433  0.35330050  0.79858165    -0.56200
O318        O  0.88116258  0.41399987  0.90971285    -0.57400
C319        C  0.87303075  0.37155425  0.97020467     0.75200
O320        O  0.80067341  0.43934644  0.96144541    -0.58500
C321        C  0.87371211  0.41269751  0.88285166     0.75200
C322        C  0.79231465  0.35806273  0.92593004     0.77600
Cd323      Cd  0.83394755  0.40504149  0.93252034     1.37500
O324        O  0.87332601  0.36880933  0.94240624    -0.57400
O325        O  0.79488834  0.37740177  0.90529519    -0.56200
C326        C  0.81871414  0.46071038  0.96019788     0.77600
O327        O  0.80540869  0.36315410  0.94986108    -0.58600
O328        O  0.85524821  0.39063457  0.98095224    -0.57000
O329        O  0.84614404  0.40988832  0.87770877    -0.57000
O330        O  0.84060427  0.45786050  0.94272784    -0.56200
O331        O  0.94212478  0.07499502  0.60307352    -0.57400
C332        C  0.89278875  0.01911315  0.60000663     0.75200
O333        O  0.97581589  0.01104029  0.67185698    -0.58500
C334        C  0.96991814  0.07239943  0.60002015     0.75200
C335        C  0.91792103  0.08379750  0.68100864     0.77600
Cd336      Cd  0.93689360  0.03671369  0.64160615     1.37500
O337        O  0.91972576  0.02378224  0.59340073    -0.57400
O338        O  0.90136922  0.06165765  0.67647605    -0.56200
C339        C  0.97207653  0.98565908  0.66087554     0.77600
O340        O  0.94422280  0.08180590  0.67114213    -0.58600
O341        O  0.88555090  0.02031258  0.62733125    -0.57000
O342        O  0.98269531  0.05268125  0.61566483    -0.57000
O343        O  0.94942457  0.98279359  0.64494926    -0.56200
O344        O  0.85972051  0.06652132  0.51557664    -0.57400
C345        C  0.87148900  0.01533026  0.57595483     0.75200
O346        O  0.78773645  0.03642449  0.55384957    -0.58500
C347        C  0.87027699  0.05882643  0.49074059     0.75200
C348        C  0.82401989  0.96757277  0.48978406     0.77600
Cd349      Cd  0.83304353  0.02021989  0.52545877     1.37500
O350        O  0.88049361  0.01791135  0.54943372    -0.57400
O351        O  0.83942259  0.96617990  0.51306993    -0.56200
C352        C  0.78249368  0.05896912  0.53741839     0.77600
O353        O  0.80944929  0.99135888  0.48572866    -0.58600
O354        O  0.84377754  0.01172485  0.57996414    -0.57000
O355        O  0.86402733  0.03307777  0.48197307    -0.57000
O356        O  0.79865263  0.06139700  0.51446732    -0.56200
C357        C  0.88915217  0.25689211  0.71994749     0.86900
C358        C  0.90430340  0.22603735  0.71693556    -0.53300
C359        C  0.88520601  0.20236613  0.71971660     0.09800
C360        C  0.85234457  0.21213315  0.72418393     0.20800
C361        C  0.86577059  0.25588178  0.69521095    -0.54000
C362        C  0.84615841  0.23309962  0.69783775     0.09900
C363        C  0.87193266  0.25450655  0.74943756    -0.53600
C364        C  0.85190246  0.23218341  0.75149590     0.10500
H365        H  0.92717772  0.22358750  0.70962620     0.15000
H366        H  0.83645030  0.19341947  0.72573335     0.00800
H367        H  0.86622199  0.26922460  0.67525805     0.15300
H368        H  0.87565001  0.26965543  0.76746773     0.15100
C369        C  0.74450029  0.24853572  0.88802129     0.86900
C370        C  0.77261301  0.23857719  0.87106632    -0.53300
C371        C  0.76907112  0.21677620  0.85080765     0.09800
C372        C  0.73688291  0.20470822  0.85126307     0.20800
C373        C  0.72189023  0.25506602  0.86297059    -0.54000
C374        C  0.71735607  0.23200591  0.84412182     0.09900
C375        C  0.73388558  0.22005848  0.90328177    -0.53600
C376        C  0.72934515  0.19713207  0.88422323     0.10500
H377        H  0.79316127  0.25109391  0.87154020     0.15000
H378        H  0.73303444  0.18562616  0.83663177     0.00800
H379        H  0.71025150  0.27595419  0.86003013     0.15300
H380        H  0.73020708  0.21820438  0.92706899     0.15100
C381        C  0.73247821  0.16910453  0.57858454     0.86900
C382        C  0.76102835  0.17674752  0.59505643    -0.53300
C383        C  0.76094294  0.20378873  0.60798327     0.09800
C384        C  0.73201143  0.22141815  0.60336901     0.20800
C385        C  0.70691950  0.17406722  0.60079308    -0.54000
C386        C  0.70707578  0.20092186  0.61442787     0.09900
C387        C  0.72841685  0.19577843  0.55633133    -0.53600
C388        C  0.72828706  0.22328836  0.56960427     0.10500
H389        H  0.77943110  0.16115863  0.59760331     0.15000
H390        H  0.73178443  0.24307833  0.61459771     0.00800
H391        H  0.69006034  0.15774054  0.60581675     0.15300
H392        H  0.72424279  0.19373991  0.53285926     0.15100
O393        O  0.56313144  0.41604532  0.58717230    -0.57400
C394        C  0.50200300  0.36997113  0.59656452     0.75200
O395        O  0.57153609  0.37486488  0.67581155    -0.58500
C396        C  0.59013132  0.41057319  0.59262724     0.75200
C397        C  0.51180063  0.45337470  0.65633499     0.77600
Cd398      Cd  0.54251147  0.40055266  0.63466079     1.37500
O399        O  0.52975318  0.36597468  0.59463821    -0.57400
O400        O  0.53347961  0.45529932  0.63831282    -0.56200
C401        C  0.55565851  0.35169251  0.67479428     0.77600
O402        O  0.50737829  0.42803128  0.66780226    -0.58600
O403        O  0.49294470  0.38912328  0.61494383    -0.57000
O404        O  0.59636944  0.40373796  0.61925283    -0.57000
O405        O  0.53372322  0.35315934  0.65770539    -0.56200
O406        O  0.60276765  0.41218605  0.54165304    -0.57400
C407        C  0.59881280  0.36623323  0.48293994     0.75200
O408        O  0.67280969  0.41441646  0.47307260    -0.58500
C409        C  0.61169134  0.40869530  0.56794051     0.75200
C410        C  0.67947318  0.33695690  0.52954634     0.77600
Cd411      Cd  0.64581778  0.39164129  0.51638786     1.37500
O412        O  0.59696250  0.36818154  0.51080811    -0.57400
O413        O  0.65816057  0.33914541  0.51184482    -0.56200
C414        C  0.66623812  0.44111165  0.47874838     0.77600
O415        O  0.68810195  0.36140016  0.54025965    -0.58600
O416        O  0.62154057  0.37728883  0.47045093    -0.57000
O417        O  0.63855642  0.40048311  0.57110327    -0.57000
O418        O  0.65486469  0.44564594  0.50411512    -0.56200
O419        O  0.60423267  0.06344777  0.94454917    -0.57400
C420        C  0.60795355  0.01640617  0.89031520     0.75200
O421        O  0.68898992  0.05678473  0.90877327    -0.58500
C422        C  0.60514214  0.06291481  0.97250891     0.75200
C423        C  0.66633953  0.98016724  0.97325717     0.77600
Cd424      Cd  0.64748779  0.03087725  0.93731608     1.37500
O425        O  0.60123813  0.01461844  0.91756671    -0.57400
O426        O  0.65291856  0.97655585  0.94911233    -0.56200
C427        C  0.68505059  0.08121727  0.92216697     0.77600
O428        O  0.67554585  0.00609791  0.97800834    -0.58600
O429        O  0.63495984  0.02174972  0.88378009    -0.57000
O430        O  0.62439635  0.04608023  0.98434867    -0.57000
O431        O  0.66660140  0.08047826  0.94342374    -0.56200
O432        O  0.55740814  0.01484791  0.87763358    -0.57400
C433        C  0.49638798  0.05916108  0.87133607     0.75200
O434        O  0.56252795  0.05433292  0.79313643    -0.58500
C435        C  0.58406554  0.01556427  0.86845321     0.75200
C436        C  0.50269193  0.97168150  0.81525000     0.77600
Cd437      Cd  0.53345912  0.02539278  0.83148670     1.37500
O438        O  0.52435486  0.06039345  0.87207077    -0.57400
O439        O  0.52194224  0.97169415  0.83538085    -0.56200
C440        C  0.54227989  0.07401323  0.79062849     0.77600
O441        O  0.50109715  0.99486891  0.79927752    -0.58600
O442        O  0.48535731  0.04093012  0.85351830    -0.57000
O443        O  0.58824675  0.01811611  0.84058735    -0.57000
O444        O  0.51789592  0.06853973  0.80342191    -0.56200
C445        C  0.58452691  0.18399220  0.74139079     0.86900
C446        C  0.56695734  0.21191690  0.73181781    -0.53300
C447        C  0.58423992  0.23644152  0.72668488     0.09800
C448        C  0.61730883  0.23109820  0.73293571     0.20800
C449        C  0.60940981  0.18023646  0.71795057    -0.54000
C450        C  0.62641870  0.20477252  0.71365130     0.09900
C451        C  0.60186895  0.19384013  0.76898242    -0.53600
C452        C  0.61861136  0.21872019  0.76470056     0.10500
H453        H  0.54299223  0.21214528  0.73008683     0.15000
H454        H  0.63147984  0.25092490  0.72913667     0.00800
H455        H  0.61472424  0.15984760  0.70665362     0.15300
H456        H  0.60310284  0.18053058  0.78920061     0.15100
O457        O  0.04343240  0.08913561  0.53249666    -0.57400
C458        C  0.98651877  0.09222345  0.58028462     0.75200
O459        O  0.04424127  0.17981124  0.56873516    -0.58500
C460        C  0.07019851  0.09678822  0.53524223     0.75200
C461        C  0.98458860  0.14803139  0.49449531     0.77600
Cd462      Cd  0.02000755  0.13479095  0.54652469     1.37500
O463        O  0.01443551  0.09036900  0.57790470    -0.57400
O464        O  0.01116511  0.13901329  0.49163417    -0.56200
C465        C  0.03228858  0.17535419  0.59407431     0.77600
O466        O  0.97659333  0.15572855  0.52024009    -0.58600
O467        O  0.97378442  0.11282996  0.56580113    -0.57000
O468        O  0.07494281  0.12406894  0.54011350    -0.57000
O469        O  0.01336154  0.15491251  0.59549511    -0.56200
O470        O  0.08550047  0.04684766  0.53364225    -0.57400
C471        C  0.09158113  0.98697438  0.58057211     0.75200
O472        O  0.16525056  0.99074764  0.51617975    -0.58500
C473        C  0.09330280  0.07359933  0.53563937     0.75200
C474        C  0.17373525  0.02883920  0.59242083     0.77600
Cd475      Cd  0.13144687  0.02321695  0.54599106     1.37500
O476        O  0.09720306  0.01343517  0.58734389    -0.57400
O477        O  0.15821214  0.00602440  0.58862446    -0.56200
C478        C  0.14932654  0.99184091  0.49329898     0.77600
O479        O  0.17264496  0.04883928  0.57226387    -0.58600
O480        O  0.10296386  0.97745788  0.55666913    -0.57000
O481        O  0.12064863  0.07830930  0.54032028    -0.57000
O482        O  0.12868780  0.01098026  0.49312082    -0.56200
C483        C  0.21858806  0.06136947  0.70715437     0.86900
C484        C  0.19237885  0.08080098  0.71803042    -0.53300
C485        C  0.19731305  0.09604969  0.74349179     0.09800
C486        C  0.22872062  0.09099511  0.75571955     0.20800
C487        C  0.24436038  0.08379511  0.70456621    -0.54000
C488        C  0.24944573  0.09932902  0.72972306     0.09900
C489        C  0.22762846  0.04171106  0.73377213    -0.53600
C490        C  0.23230073  0.05716941  0.75922932     0.10500
H491        H  0.17227990  0.08394927  0.70524723     0.15000
H492        H  0.23330998  0.10333122  0.77633149     0.00800
H493        H  0.25755337  0.08823374  0.68487664     0.15300
H494        H  0.23133566  0.01790252  0.73224724     0.15100
O495        O  0.41855714  0.07465069  0.93697448    -0.57400
C496        C  0.47778268  0.07896848  0.88916734     0.75200
O497        O  0.44931827  0.14456715  0.87345875    -0.58500
C498        C  0.39181914  0.08191897  0.93225374     0.75200
C499        C  0.47680325  0.13951510  0.97098358     0.77600
Cd500      Cd  0.44117717  0.12087651  0.92104805     1.37500
O501        O  0.45006876  0.08058189  0.88558322    -0.57400
O502        O  0.45425335  0.12325462  0.97499718    -0.56200
C503        C  0.42683817  0.16153711  0.87283781     0.77600
O504        O  0.47954297  0.15134501  0.94554396    -0.58600
O505        O  0.48872642  0.09619184  0.90798605    -0.57000
O506        O  0.38670622  0.10911264  0.92635629    -0.57000
O507        O  0.41189463  0.16280109  0.89688520    -0.56200
O508        O  0.37696311  0.03175437  0.93357497    -0.57400
C509        C  0.37519239  0.97148324  0.88731112     0.75200
O510        O  0.30539272  0.96842734  0.94078343    -0.58500
C511        C  0.36923535  0.05861907  0.93031421     0.75200
C512        C  0.29504198  0.02003739  0.86441364     0.77600
Cd513      Cd  0.33243152  0.00902916  0.91537750     1.37500
O514        O  0.37667949  0.99943055  0.88526817    -0.57400
O515        O  0.31829922  0.00437847  0.86415033    -0.56200
C516        C  0.31406497  0.97470771  0.96648795     0.77600
O517        O  0.28705785  0.03008153  0.88957534    -0.58600
O518        O  0.35496247  0.96076389  0.90385320    -0.57000
O519        O  0.34259388  0.06352141  0.92248364    -0.57000
O520        O  0.32621318  0.99969244  0.96943400    -0.56200
C521        C  0.38369431  0.21502737  0.70399218     0.86900
C522        C  0.40267896  0.20922783  0.73161646    -0.53300
C523        C  0.38692283  0.20346352  0.75717833     0.09800
C524        C  0.35292522  0.20426615  0.75268108     0.20800
C525        C  0.36417644  0.18673694  0.70295316    -0.54000
C526        C  0.34787687  0.18123991  0.72830837     0.09900
C527        C  0.36183792  0.23963094  0.71264235    -0.53600
C528        C  0.34597766  0.23456424  0.73794856     0.10500
H529        H  0.42645047  0.20873186  0.73076123     0.15000
H530        H  0.33980676  0.20040914  0.77322109     0.00800
H531        H  0.36286993  0.17188281  0.68432945     0.15300
H532        H  0.35938257  0.26006213  0.69973486     0.15100
O533        O  0.37697594  0.40669150  0.54559530    -0.57400
C534        C  0.37848503  0.46194537  0.59383066     0.75200
O535        O  0.30977853  0.47359515  0.53985981    -0.58500
C536        C  0.36873746  0.38004829  0.54833707     0.75200
C537        C  0.29185056  0.41855283  0.61440252     0.77600
Cd538      Cd  0.33265600  0.43014774  0.56485197     1.37500
O539        O  0.36029557  0.47501074  0.57682843    -0.57400
O540        O  0.28800178  0.40608203  0.58965768    -0.56200
C541        C  0.31560970  0.46559771  0.51364340     0.77600
O542        O  0.31232392  0.43752257  0.61452262    -0.58600
O543        O  0.37596881  0.43416242  0.59692120    -0.57000
O544        O  0.34204596  0.37576960  0.55667996    -0.57000
O545        O  0.32495158  0.43923181  0.51057630    -0.56200
O546        O  0.45354689  0.35544529  0.58253567    -0.57400
C547        C  0.39067256  0.35610744  0.54460428     0.75200
O548        O  0.47133737  0.28341705  0.51718398    -0.58500
C549        C  0.48128545  0.35234903  0.57938432     0.75200
C550        C  0.42611911  0.27074570  0.59356211     0.77600
Cd551      Cd  0.43957688  0.31524244  0.54897156     1.37500
O552        O  0.41685334  0.36233805  0.53632689    -0.57400
O553        O  0.44843950  0.28754950  0.59413976    -0.56200
C554        C  0.46714710  0.29810897  0.49354382     0.77600
O555        O  0.41057606  0.27258079  0.57031664    -0.58600
O556        O  0.38566014  0.32930241  0.55194176    -0.57000
O557        O  0.49011522  0.33256391  0.56158103    -0.57000
O558        O  0.44653904  0.31734380  0.49418221    -0.56200
C559        C  0.08645805  0.21926637  0.70204190     0.86900
C560        C  0.07008112  0.22971386  0.73055171    -0.53300
C561        C  0.08834232  0.23424714  0.75422864     0.09800
C562        C  0.12141450  0.22959248  0.74670994     0.20800
C563        C  0.10959554  0.24391115  0.69588404    -0.54000
C564        C  0.12762563  0.24928757  0.71917231     0.09900
C565        C  0.10611512  0.19274975  0.71180212    -0.53600
C566        C  0.12382269  0.19745923  0.73587081     0.10500
H567        H  0.04635274  0.23388500  0.73127790     0.15000
H568        H  0.13547417  0.23493887  0.76558779     0.00800
H569        H  0.11233635  0.25626238  0.67531890     0.15300
H570        H  0.10571081  0.17160850  0.70048406     0.15100
O571        O  0.02968400  0.35546319  0.88357439    -0.57400
C572        C  0.08280073  0.35779194  0.93336838     0.75200
O573        O  0.00156112  0.28460071  0.94651327    -0.58500
C574        C  0.00185079  0.35239652  0.88323020     0.75200
C575        C  0.05823040  0.27627603  0.87202803     0.77600
Cd576      Cd  0.03877032  0.31501459  0.91890901     1.37500
O577        O  0.05551300  0.36397046  0.93041827    -0.57400
O578        O  0.03185372  0.28558019  0.87453317    -0.56200
C579        C  0.00420124  0.29784580  0.97086439     0.77600
O580        O  0.07518616  0.28098548  0.89373064    -0.58600
O581        O  0.09038731  0.33059319  0.93153344    -0.57000
O582        O  0.99079906  0.33287398  0.90034948    -0.57000
O583        O  0.02632526  0.31472332  0.97294719    -0.56200
O584        O  0.09458314  0.40852587  0.93772456    -0.57400
C585        C  0.10475823  0.46782394  0.89173476     0.75200
O586        O  0.16723717  0.47104510  0.95923644    -0.58500
C587        C  0.10407276  0.38204198  0.93636228     0.75200
C588        C  0.18881289  0.41666043  0.89081115     0.77600
Cd589      Cd  0.14153462  0.43291904  0.93038969     1.37500
O590        O  0.09857013  0.44133999  0.89856211    -0.57400
O591        O  0.17109466  0.43785097  0.88568786    -0.56200
C592        C  0.15229361  0.46744044  0.98282299     0.77600
O593        O  0.18623284  0.40372832  0.91589061    -0.58600
O594        O  0.12742628  0.47879875  0.90356885    -0.57000
O595        O  0.13207324  0.37826342  0.93539849    -0.57000
O596        O  0.13517656  0.44533141  0.98378248    -0.56200
C597        C  0.23615172  0.36862572  0.78229829     0.86900
C598        C  0.21058674  0.34951673  0.77150290    -0.53300
C599        C  0.21519903  0.33641581  0.74473414     0.09800
C600        C  0.24650034  0.34281489  0.73164764     0.20800
C601        C  0.26368382  0.34880437  0.78215829    -0.54000
C602        C  0.26887265  0.33475059  0.75625124     0.09900
C603        C  0.24124636  0.39061765  0.75577174    -0.53600
C604        C  0.24773849  0.37706608  0.72925027     0.10500
H605        H  0.19039267  0.34643078  0.78450004     0.15000
H606        H  0.25145991  0.33121847  0.71057108     0.00800
H607        H  0.27626032  0.34393773  0.80207621     0.15300
H608        H  0.23822301  0.41429606  0.75703109     0.15100
O609        O  0.08790804  0.52776295  0.05966293    -0.57400
C610        C  0.09813728  0.57522196  0.99717713     0.75200
O611        O  0.18252672  0.56230958  0.05968433    -0.58500
C612        C  0.09441111  0.52990948  0.08667245     0.75200
C613        C  0.15135250  0.49035024  0.00567258     0.77600
Cd614      Cd  0.13463324  0.54263988  0.03817271     1.37500
O615        O  0.09917553  0.58193570  0.02426739    -0.57400
O616        O  0.13320227  0.48893854  0.02722362    -0.56200
C617        C  0.17873864  0.58802316  0.04817672     0.77600
O618        O  0.16549811  0.51435497  0.00243876    -0.58600
O619        O  0.11294839  0.55266616  0.98913318    -0.57000
O620        O  0.12112368  0.53631628  0.09244331    -0.57000
O621        O  0.15549148  0.59130113  0.03327543    -0.56200
O622        O  0.01519901  0.57508245  0.10536947    -0.57400
C623        C  0.07061192  0.52778143  0.10905711     0.75200
O624        O  0.03974271  0.54996506  0.19275437    -0.58500
C625        C  0.98802349  0.57136767  0.10015678     0.75200
C626        C  0.98369142  0.48482777  0.15627951     0.77600
Cd627      Cd  0.01828481  0.53710983  0.14463769     1.37500
O628        O  0.04488260  0.52042706  0.10120878    -0.57400
O629        O  0.00973998  0.48256852  0.14560102    -0.56200
C630        C  0.02892844  0.57610337  0.19359941     0.77600
O631        O  0.97581445  0.51009971  0.16555850    -0.58600
O632        O  0.07349477  0.53592586  0.13568285    -0.57000
O633        O  0.97451732  0.55211351  0.11577002    -0.57000
O634        O  0.01093371  0.58289665  0.17331639    -0.56200
C635        C  0.08922970  0.67541301  0.24483779     0.86900
C636        C  0.10596845  0.68299636  0.21603718    -0.53300
C637        C  0.12592355  0.70558127  0.21749854     0.09800
C638        C  0.12630513  0.71982332  0.24851196     0.20800
C639        C  0.11235885  0.67184649  0.26908021    -0.54000
C640        C  0.13267255  0.69387010  0.27022495     0.09900
C641        C  0.07396113  0.70544411  0.25294173    -0.53600
C642        C  0.09353891  0.72873296  0.25536164     0.10500
H643        H  0.10235961  0.67059068  0.19589597     0.15000
H644        H  0.14196539  0.73846120  0.25046639     0.00800
H645        H  0.11139846  0.65436266  0.28564331     0.15300
H646        H  0.05039901  0.70833093  0.25734927     0.15100
O647        O  0.09235299  0.91853605  0.41484205    -0.57400
C648        C  0.10080465  0.88536544  0.48457396     0.75200
O649        O  0.18393111  0.88749193  0.42240954    -0.58500
C650        C  0.10257414  0.91745072  0.38868138     0.75200
C651        C  0.15073780  0.96866192  0.47075780     0.77600
Cd652      Cd  0.13776341  0.91400428  0.44135227     1.37500
O653        O  0.09085473  0.89333348  0.45961050    -0.57400
O654        O  0.13097209  0.96718984  0.45123665    -0.56200
C655        C  0.17594353  0.86280865  0.43388240     0.77600
O656        O  0.16835652  0.94674213  0.47280089    -0.58600
O657        O  0.12682508  0.89340188  0.49079844    -0.57000
O658        O  0.13070536  0.91745079  0.38562960    -0.57000
O659        O  0.15178673  0.86314757  0.44825949    -0.56200
O660        O  0.03084306  0.86286585  0.36361472    -0.57400
C661        C  0.08166545  0.91375085  0.36427850     0.75200
O662        O  0.02976642  0.85412456  0.29070273    -0.58500
C663        C  0.00289462  0.86192674  0.36292769     0.75200
C664        C  0.00455214  0.95161444  0.30575693     0.77600
Cd665      Cd  0.03739713  0.89770757  0.32243014     1.37500
O666        O  0.05453571  0.90964002  0.37061830    -0.57400
O667        O  0.02699005  0.95207055  0.32222857    -0.56200
C668        C  0.05688615  0.84929360  0.28497966     0.77600
O669        O  0.99999670  0.92739453  0.29267695    -0.58600
O670        O  0.08919659  0.91250883  0.33701127    -0.57000
O671        O  0.99016480  0.87838613  0.34392732    -0.57000
O672        O  0.07476632  0.86958026  0.29207410    -0.56200
C673        C  0.22862413  0.74992330  0.40152286     0.86900
C674        C  0.23721231  0.72234609  0.42006764    -0.53300
C675        C  0.24617871  0.69848299  0.40352172     0.09800
C676        C  0.24545015  0.70418313  0.36984055     0.20800
C677        C  0.25639282  0.75529399  0.38156481    -0.54000
C678        C  0.26449725  0.73178043  0.36447105     0.09900
C679        C  0.20531072  0.73904779  0.37939781    -0.53600
C680        C  0.21391235  0.71482375  0.36352548     0.10500
H681        H  0.23570820  0.72171105  0.44405484     0.15000
H682        H  0.25241162  0.68479582  0.35631501     0.00800
H683        H  0.26905615  0.77545328  0.38072403     0.15300
H684        H  0.18426207  0.75023789  0.37551649     0.15100
O685        O  0.45103796  0.56499342  0.37396548    -0.57400
C686        C  0.39199430  0.51996689  0.37369570     0.75200
O687        O  0.40985246  0.55856186  0.29351924    -0.58500
C688        C  0.47876564  0.56062615  0.37314268     0.75200
C689        C  0.47136924  0.47992473  0.31035898     0.77600
Cd690      Cd  0.43984527  0.53189878  0.33256357     1.37500
O691        O  0.41905189  0.51515501  0.37935001    -0.57400
O692        O  0.44945925  0.47747809  0.32802441    -0.56200
C693        C  0.42612928  0.58145794  0.29293096     0.77600
O694        O  0.47551437  0.50542263  0.29912391    -0.58600
O695        O  0.38583451  0.52712871  0.34712652    -0.57000
O696        O  0.48852969  0.54231940  0.35427308    -0.57000
O697        O  0.44920067  0.57963847  0.30853822    -0.56200
O698        O  0.37922060  0.51789914  0.42453532    -0.57400
C699        C  0.37978582  0.56590208  0.48156798     0.75200
O700        O  0.29006554  0.55942975  0.42636275    -0.58500
C701        C  0.37022452  0.52067458  0.39822889     0.75200
C702        C  0.31605672  0.48743692  0.48907730     0.77600
Cd703      Cd  0.33491580  0.53513047  0.44982652     1.37500
O704        O  0.37211943  0.57400555  0.45585241    -0.57400
O705        O  0.32772652  0.48171633  0.46406899    -0.56200
C706        C  0.29384851  0.58383033  0.43960524     0.77600
O707        O  0.30870849  0.51417186  0.49343820    -0.58600
O708        O  0.36776653  0.54275515  0.49219676    -0.57000
O709        O  0.34290678  0.52695709  0.39495916    -0.57000
O710        O  0.31413256  0.58363855  0.45867340    -0.56200
C711        C  0.24511793  0.74701149  0.08589755     0.86900
C712        C  0.24516943  0.71838584  0.06725376    -0.53300
C713        C  0.24165190  0.69250384  0.08350168     0.09800
C714        C  0.24037905  0.69790091  0.11736880     0.20800
C715        C  0.21682086  0.74507922  0.10523145    -0.54000
C716        C  0.21437461  0.71996423  0.12223918     0.09900
C717        C  0.27089556  0.74119502  0.10736013    -0.53600
C718        C  0.26862649  0.71566583  0.12360951     0.10500
H719        H  0.24793495  0.71780552  0.04352806     0.15000
H720        H  0.23867796  0.67772747  0.13144491     0.00800
H721        H  0.20045201  0.76293772  0.10605472     0.15300
H722        H  0.28903170  0.75663660  0.11033770     0.15100
O723        O  0.37910495  0.92064804  0.04749391    -0.57400
C724        C  0.37536847  0.86707416  0.99417736     0.75200
O725        O  0.28967751  0.88447039  0.05618212    -0.58500
C726        C  0.37187000  0.91787140  0.07456936     0.75200
C727        C  0.31491276  0.95200503  0.99009019     0.77600
Cd728      Cd  0.33328737  0.90237426  0.02685390     1.37500
O729        O  0.37312960  0.86497265  0.02205836    -0.57400
O730        O  0.32861844  0.95608816  0.01398892    -0.56200
C731        C  0.28840951  0.85960686  0.04334426     0.77600
O732        O  0.30599043  0.92596385  0.98557736    -0.58600
O733        O  0.35866449  0.88584535  0.98140979    -0.57000
O734        O  0.34515864  0.91075966  0.08028183    -0.57000
O735        O  0.30627191  0.85596702  0.02187137    -0.56200
O736        O  0.42166863  0.92275382  0.08962626    -0.57400
C737        C  0.48063691  0.87605415  0.09535489     0.75200
O738        O  0.48174547  0.93322287  0.16589483    -0.58500
C739        C  0.39480153  0.91936299  0.09738058     0.75200
C740        C  0.43149722  0.85802167  0.17553009     0.77600
Cd741      Cd  0.44364363  0.90776056  0.13614213     1.37500
O742        O  0.45268503  0.87508001  0.09394794    -0.57400
O743        O  0.41667600  0.88200157  0.17863976    -0.56200
C744        C  0.47798595  0.95864816  0.15432233     0.77600
O745        O  0.45237545  0.85878975  0.15674661    -0.58600
O746        O  0.49154133  0.89317141  0.11432007    -0.57000
O747        O  0.38961846  0.91428507  0.12474133    -0.57000
O748        O  0.45514057  0.96198405  0.13853415    -0.56200
C749        C  0.38957346  0.75173603  0.23655588     0.86900
C750        C  0.36543561  0.74506702  0.21395423    -0.53300
C751        C  0.34907904  0.72050138  0.21990851     0.09800
C752        C  0.35761012  0.70456173  0.24914451     0.20800
C753        C  0.37189989  0.75337596  0.26596571    -0.54000
C754        C  0.35562720  0.72874255  0.27292510     0.09900
C755        C  0.40764315  0.72252943  0.23866390    -0.53600
C756        C  0.39134070  0.69784547  0.24636807     0.10500
H757        H  0.36172109  0.75863969  0.19420125     0.15000
H758        H  0.34341244  0.68508352  0.25400160     0.00800
H759        H  0.36946047  0.77277315  0.27933432     0.15300
H760        H  0.43129342  0.72189180  0.23427814     0.15100
O761        O  0.39265702  0.92459045  0.87108469    -0.57400
C762        C  0.43884723  0.86661558  0.86923848     0.75200
O763        O  0.40181483  0.88853582  0.78848525    -0.58500
C764        C  0.39460122  0.95253056  0.86966358     0.75200
C765        C  0.48005496  0.94834637  0.81430852     0.77600
Cd766      Cd  0.42715320  0.91544468  0.82988889     1.37500
O767        O  0.43960382  0.89357579  0.87655309    -0.57400
O768        O  0.48076932  0.92651864  0.83212940    -0.56200
C769        C  0.37833244  0.90433835  0.79043673     0.77600
O770        O  0.45663370  0.95151182  0.79933691    -0.58600
O771        O  0.43500428  0.86117827  0.84196017    -0.57000
O772        O  0.41279616  0.96333914  0.85093564    -0.57000
O773        O  0.37940328  0.92591687  0.80794434    -0.56200
O774        O  0.44245768  0.85191777  0.91922991    -0.57400
C775        C  0.39533122  0.84781501  0.97730581     0.75200
O776        O  0.40399985  0.76525971  0.91621760    -0.58500
C777        C  0.43959868  0.84383821  0.89267024     0.75200
C778        C  0.48240285  0.79153904  0.97475654     0.77600
Cd779      Cd  0.42927798  0.80624800  0.94295786     1.37500
O780        O  0.39550495  0.84840791  0.94933585    -0.57400
O781        O  0.48327582  0.80766235  0.95167365    -0.56200
C782        C  0.38129290  0.76651925  0.93324640     0.77600
O783        O  0.45854499  0.77768320  0.97981630    -0.58600
O784        O  0.41226332  0.82902756  0.98978706    -0.57000
O785        O  0.43482510  0.81644753  0.88832657    -0.57000
O786        O  0.38344095  0.78232709  0.95593233    -0.56200
O787        O  0.03923825  0.58430309  0.91223702    -0.57400
C788        C  0.08162060  0.59346795  0.97595856     0.75200
O789        O  0.07845347  0.67482368  0.90555080    -0.58500
C790        C  0.04209237  0.59115689  0.88508637     0.75200
C791        C  0.99955635  0.64876935  0.96623856     0.77600
Cd792      Cd  0.05289139  0.63156812  0.93326434     1.37500
O793        O  0.07908061  0.58595182  0.94921218    -0.57400
O794        O  0.99837580  0.63278555  0.94344474    -0.56200
C795        C  0.10363108  0.66851678  0.91659945     0.77600
O796        O  0.02399734  0.66159508  0.97047612    -0.58600
O797        O  0.07013415  0.61807109  0.98325309    -0.57000
O798        O  0.04759474  0.61822612  0.87911544    -0.57000
O799        O  0.10346062  0.64779547  0.93566744    -0.56200
O800        O  0.09400920  0.51053258  0.86241808    -0.57400
C801        C  0.04187604  0.56750748  0.86273194     0.75200
O802        O  0.07539702  0.53706387  0.77855080    -0.58500
C803        C  0.08703595  0.48451724  0.87040516     0.75200
C804        C  0.00527635  0.47840512  0.80958222     0.77600
Cd805      Cd  0.05440114  0.51627121  0.82619831     1.37500
O806        O  0.03712760  0.54101251  0.87089108    -0.57400
O807        O  0.99987695  0.50411229  0.81956341    -0.56200
C808        C  0.10032421  0.52381723  0.78095333     0.77600
O809        O  0.03218202  0.47246053  0.80390400    -0.58600
O810        O  0.04903260  0.57152469  0.83565168    -0.57000
O811        O  0.06453371  0.47330127  0.85845372    -0.57000
O812        O  0.10264747  0.50632972  0.80288846    -0.56200
C813        C  0.27430462  0.72154275  0.88289611     0.86900
C814        C  0.24474622  0.71570938  0.89934861    -0.53300
C815        C  0.22089383  0.71232443  0.88120652     0.09800
C816        C  0.22854660  0.71706566  0.84811659     0.20800
C817        C  0.27717052  0.69649978  0.85991993    -0.54000
C818        C  0.25344579  0.69435005  0.84145435     0.09900
C819        C  0.26819921  0.74923310  0.86325817    -0.53600
C820        C  0.24405404  0.74717883  0.84560322     0.10500
H821        H  0.24302941  0.71446589  0.92333285     0.15000
H822        H  0.20906958  0.71575358  0.83334483     0.00800
H823        H  0.29633582  0.68237117  0.85717402     0.15300
H824        H  0.28318268  0.76799650  0.86184636     0.15100
C825        C  0.21281334  0.87788452  0.72434824     0.86900
C826        C  0.22433002  0.86434722  0.69542468    -0.53300
C827        C  0.24728483  0.84443960  0.69808031     0.09800
C828        C  0.25835427  0.84165711  0.73037337     0.20800
C829        C  0.20726812  0.85025081  0.74496615    -0.54000
C830        C  0.23109929  0.83168095  0.74846205     0.09900
C831        C  0.24019352  0.89265489  0.73733499    -0.53600
C832        C  0.26399825  0.87376905  0.74084126     0.10500
H833        H  0.21203974  0.86666675  0.67491707     0.15000
H834        H  0.27780286  0.82676455  0.73343446     0.00800
H835        H  0.18676351  0.84533171  0.75670729     0.15300
H836        H  0.24067805  0.91590609  0.74346211     0.15100
C837        C  0.21532440  0.55718735  0.73390025     0.86900
C838        C  0.21803031  0.57954699  0.75922684    -0.53300
C839        C  0.24026608  0.59966495  0.75619279     0.09800
C840        C  0.26094304  0.59309137  0.72946227     0.20800
C841        C  0.21690252  0.57595056  0.70490024    -0.54000
C842        C  0.24031384  0.59488138  0.70284184     0.09900
C843        C  0.24583575  0.54109606  0.73408979    -0.53600
C844        C  0.26978910  0.55986545  0.73199725     0.10500
H845        H  0.20241892  0.57990946  0.77775686     0.15000
H846        H  0.28009339  0.60822887  0.72675914     0.00800
H847        H  0.19955980  0.57603971  0.68834594     0.15300
H848        H  0.24938550  0.51750546  0.73280785     0.15100
O849        O  0.40244245  0.50623107  0.60747371    -0.57400
C850        C  0.44695602  0.56123520  0.60882647     0.75200
O851        O  0.39219146  0.50064443  0.67676398    -0.58500
C852        C  0.40027129  0.47845083  0.61043326     0.75200
C853        C  0.48980606  0.47763611  0.65960519     0.77600
Cd854      Cd  0.43652786  0.51270941  0.64855943     1.37500
O855        O  0.44658754  0.53428266  0.60127324    -0.57400
O856        O  0.49021215  0.50001179  0.64247189    -0.56200
C857        C  0.38697246  0.52570510  0.68783688     0.77600
O858        O  0.46704662  0.47501172  0.67613328    -0.58600
O859        O  0.44558852  0.56664268  0.63645857    -0.57000
O860        O  0.41665591  0.46596740  0.62952427    -0.57000
O861        O  0.40794335  0.54441449  0.68573547    -0.56200
O862        O  0.44479864  0.57583789  0.55882489    -0.57400
C863        C  0.40004023  0.58360497  0.49893957     0.75200
O864        O  0.40680253  0.66413320  0.56445368    -0.58500
C865        C  0.44588028  0.58407968  0.58544779     0.75200
C866        C  0.48577862  0.63531093  0.50063476     0.77600
Cd867      Cd  0.43286161  0.62225952  0.53606445     1.37500
O868        O  0.40594081  0.57663407  0.52545012    -0.57400
O869        O  0.48559128  0.61644515  0.52152517    -0.56200
C870        C  0.38182136  0.65942366  0.55252856     0.77600
O871        O  0.46335619  0.65244930  0.49924223    -0.58600
O872        O  0.41095569  0.60754832  0.48883720    -0.57000
O873        O  0.44332031  0.61177438  0.59015952    -0.57000
O874        O  0.38212188  0.64009621  0.53252919    -0.56200
O875        O  0.02959590  0.90262496  0.60159010    -0.57400
C876        C  0.07451873  0.96786095  0.60067916     0.75200
O877        O  0.02059354  0.96775394  0.67275410    -0.58500
C878        C  0.03811831  0.87682600  0.60911520     0.75200
C879        C  0.09902664  0.91909565  0.68169963     0.77600
Cd880      Cd  0.04775650  0.92898854  0.64409075     1.37500
O881        O  0.06469067  0.97731213  0.62520183    -0.57400
O882        O  0.07409068  0.90814068  0.68941460    -0.56200
C883        C  0.99544491  0.96256223  0.66194453     0.77600
O884        O  0.09888019  0.93443913  0.65810053    -0.58600
O885        O  0.07053166  0.94074080  0.59534014    -0.57000
O886        O  0.04805488  0.87369094  0.63522568    -0.57000
O887        O  0.99317843  0.93857503  0.64789132    -0.56200
O888        O  0.03120287  0.85906549  0.56056673    -0.57400
C889        C  0.08431005  0.86501849  0.50378912     0.75200
O890        O  0.07960613  0.77134912  0.55609518    -0.58500
C891        C  0.03974115  0.85342971  0.58661715     0.75200
C892        C  0.01234322  0.79447671  0.49611142     0.77600
Cd893      Cd  0.05604690  0.81790906  0.53589479     1.37500
O894        O  0.09602897  0.85344330  0.52653713    -0.57400
O895        O  0.00473393  0.79915156  0.52285469    -0.56200
C896        C  0.10369195  0.77461430  0.54144647     0.77600
O897        O  0.03950746  0.79746971  0.48977396    -0.58600
O898        O  0.05873796  0.85615516  0.49696807    -0.57000
O899        O  0.05263490  0.82859258  0.59076552    -0.57000
O900        O  0.10474331  0.79722563  0.52464476    -0.56200
C901        C  0.21234718  0.72049175  0.57754282     0.86900
C902        C  0.24238806  0.71275410  0.56302674    -0.53300
C903        C  0.26552564  0.71059829  0.58253001     0.09800
C904        C  0.25648794  0.71775221  0.61506784     0.20800
C905        C  0.20921486  0.69633302  0.60258792    -0.54000
C906        C  0.23216175  0.69527465  0.62216267     0.09900
C907        C  0.21817432  0.74931518  0.59386797    -0.53600
C908        C  0.23957757  0.74776663  0.61459493     0.10500
H909        H  0.24499726  0.70818158  0.53972194     0.15000
H910        H  0.27511979  0.71661247  0.63099053     0.00800
H911        H  0.19229042  0.67945520  0.60390591     0.15300
H912        H  0.20447492  0.76912032  0.59089970     0.15100
C913        C  0.15713047  0.76446265  0.53135586    -0.05400
C914        C  0.13026487  0.75462674  0.54423999     0.00600
C915        C  0.13015784  0.72681795  0.55924482    -0.08000
C916        C  0.15760547  0.71278054  0.56519370    -0.05400
C917        C  0.18517921  0.72579186  0.55729234     0.00600
C918        C  0.18446722  0.74996817  0.53647136    -0.07900
C919        C  0.21192341  0.76074370  0.51940360     0.62500
H920        H  0.15682067  0.78447304  0.51781542     0.13200
H921        H  0.15701113  0.69253479  0.57802092     0.13200
C922        C  0.10152301  0.71219052  0.56975675     0.62700
F923        F  0.20540146  0.78436178  0.50055163    -0.22500
F924        F  0.22287895  0.73796019  0.50205642    -0.19800
F925        F  0.23379812  0.77014880  0.53822712    -0.19500
F926        F  0.08157789  0.71139709  0.54667119    -0.19500
F927        F  0.08926471  0.72791358  0.59312366    -0.19800
F928        F  0.10622724  0.68323499  0.57943022    -0.22500
C929        C  0.32686342  0.65835790  0.55414621    -0.05400
C930        C  0.35283656  0.67379506  0.56137885     0.00600
C931        C  0.34982884  0.70140547  0.57605426    -0.08000
C932        C  0.32093509  0.71264451  0.58232929    -0.05400
C933        C  0.29511722  0.69738340  0.57435831     0.00600
C934        C  0.29814422  0.66921002  0.56057406    -0.07900
C935        C  0.27176621  0.64993485  0.55238124     0.62500
H936        H  0.32913147  0.63720085  0.54314279     0.13200
H937        H  0.31822424  0.73372753  0.59340828     0.13200
C938        C  0.37677671  0.71924690  0.58451599     0.62700
F939        F  0.28028309  0.62062004  0.54831061    -0.22500
F940        F  0.25959377  0.66014331  0.52615899    -0.19800
F941        F  0.25019050  0.64994528  0.57440287    -0.19500
F942        F  0.39424069  0.72469368  0.55959759    -0.19500
F943        F  0.39312520  0.70360192  0.60535711    -0.19800
F944        F  0.36886533  0.74634609  0.59661357    -0.22500
C945        C  0.21812304  0.64254256  0.68732336    -0.05400
C946        C  0.23998131  0.62083634  0.68232420     0.00600
C947        C  0.26084700  0.62478685  0.65897642    -0.08000
C948        C  0.25863707  0.65046001  0.64093740    -0.05400
C949        C  0.23550166  0.67125281  0.64483568     0.00600
C950        C  0.21563611  0.66792720  0.66922019    -0.07900
C951        C  0.19286752  0.69158585  0.67705699     0.62500
H952        H  0.20276416  0.63931631  0.70557150     0.13200
H953        H  0.27448088  0.65399993  0.62304699     0.13200
C954        C  0.28419368  0.60131168  0.65223401     0.62700
F955        F  0.17815737  0.68532961  0.70354293    -0.22500
F956        F  0.17182095  0.69373844  0.65511440    -0.19800
F957        F  0.20712957  0.71841282  0.68012125    -0.19500
F958        F  0.27041021  0.57461132  0.64678788    -0.19500
F959        F  0.30295496  0.59786310  0.67604119    -0.19800
F960        F  0.30129767  0.60880470  0.62756040    -0.22500
C961        C  0.30286498  0.53230512  0.69807282    -0.05400
C962        C  0.30027632  0.54885211  0.72409407     0.00600
C963        C  0.32654351  0.55657694  0.73931029    -0.08000
C964        C  0.35449643  0.54912934  0.72670452    -0.05400
C965        C  0.35699651  0.53281389  0.70045731     0.00600
C966        C  0.33057834  0.52422295  0.68580298    -0.07900
C967        C  0.33126305  0.50827193  0.65620636     0.62500
H968        H  0.28267927  0.52673339  0.68663050     0.13200
H969        H  0.37460402  0.55547847  0.73792881     0.13200
C970        C  0.32660725  0.57138216  0.76929488     0.62700
F971        F  0.30315233  0.50526072  0.64450123    -0.22500
F972        F  0.34315501  0.48006868  0.65969554    -0.19800
F973        F  0.34816987  0.52427033  0.63589772    -0.19500
F974        F  0.29857159  0.57380834  0.78186746    -0.19500
F975        F  0.33877917  0.59938222  0.76633175    -0.19800
F976        F  0.34389287  0.55470371  0.78858211    -0.22500
C977        C  0.21969551  0.80675190  0.67132114    -0.05400
C978        C  0.24747550  0.81905612  0.67706284     0.00600
C979        C  0.27301268  0.80729742  0.66261689    -0.08000
C980        C  0.26956823  0.78296817  0.64341680    -0.05400
C981        C  0.24146806  0.77095060  0.63766550     0.00600
C982        C  0.21581327  0.78313854  0.65226265    -0.07900
C983        C  0.18336889  0.77387437  0.64901501     0.62500
H984        H  0.20016877  0.81561437  0.68258381     0.13200
H985        H  0.28875359  0.77372236  0.63196187     0.13200
C986        C  0.30339235  0.82080718  0.66654824     0.62700
F987        F  0.16977526  0.77190303  0.67670239    -0.22500
F988        F  0.17944053  0.74687802  0.63591278    -0.19800
F989        F  0.16858940  0.79541288  0.63258823    -0.19500
F990        F  0.31343819  0.81462189  0.69477418    -0.19500
F991        F  0.30177818  0.85124575  0.66215251    -0.19800
F992        F  0.32399197  0.80951332  0.64649674    -0.22500
C993        C  0.15935070  0.89392531  0.73657732    -0.05400
C994        C  0.18529834  0.89821084  0.71902094     0.00600
C995        C  0.18242950  0.91680517  0.69330098    -0.08000
C996        C  0.15383038  0.92358172  0.68294041    -0.05400
C997        C  0.12774738  0.91396490  0.69758812     0.00600
C998        C  0.13055189  0.90013218  0.72585233    -0.07900
C999        C  0.10366245  0.89097434  0.74439141     0.62500
H1000       H  0.16140636  0.88447711  0.75851229     0.13200
H1001       H  0.15211418  0.93599765  0.66226308     0.13200
C1002       C  0.20798155  0.92958996  0.67483045     0.62700
F1003       F  0.11159213  0.87999961  0.77204458    -0.22500
F1004       F  0.08847440  0.86884056  0.73010630    -0.19800
F1005       F  0.08507748  0.91520666  0.74867978    -0.19500
F1006       F  0.20778940  0.91741222  0.64680383    -0.19500
F1007       F  0.23556174  0.92482858  0.68694455    -0.19800
F1008       F  0.20412516  0.95999829  0.67194920    -0.22500
C1009       C  0.24027563  0.75861729  0.79219883    -0.05400
C1010       C  0.23813850  0.76885761  0.82133470     0.00600
C1011       C  0.23077500  0.79896406  0.82647531    -0.08000
C1012       C  0.22815689  0.81839548  0.80194580    -0.05400
C1013       C  0.23215421  0.80863834  0.77265669     0.00600
C1014       C  0.23681401  0.77785531  0.76766274    -0.07900
C1015       C  0.23630931  0.76485225  0.73695361     0.62500
H1016       H  0.24502920  0.73526630  0.78880840     0.13200
H1017       H  0.22319734  0.84159692  0.80556650     0.13200
C1018       C  0.22495885  0.81040540  0.85755725     0.62700
F1019       F  0.23785267  0.73410023  0.73757648    -0.22500
F1020       F  0.26019140  0.77504733  0.72048625    -0.19800
F1021       F  0.20999284  0.77294632  0.72359377    -0.19500
F1022       F  0.25132804  0.81199490  0.87279288    -0.19500
F1023       F  0.20573690  0.79157328  0.87266799    -0.19800
F1024       F  0.21212103  0.83847012  0.85701319    -0.22500
C1025       C  0.22301869  0.65988938  0.81298926    -0.05400
C1026       C  0.25110814  0.67201013  0.81752398     0.00600
C1027       C  0.27511709  0.66274287  0.79893782    -0.08000
C1028       C  0.27086895  0.63835286  0.78036982    -0.05400
C1029       C  0.24263649  0.62632144  0.77566671     0.00600
C1030       C  0.21774885  0.64008283  0.79005930    -0.07900
C1031       C  0.18546884  0.63762556  0.78083276     0.62500
H1032       H  0.20422543  0.66712998  0.82652653     0.13200
H1033       H  0.29006341  0.62944096  0.76865880     0.13200
C1034       C  0.30491733  0.67825289  0.79647154     0.62700
F1035       F  0.17233093  0.66558491  0.78064647    -0.22500
F1036       F  0.17014012  0.61977616  0.80084341    -0.19800
F1037       F  0.18248466  0.62676648  0.75267637    -0.19500
F1038       F  0.32592977  0.66221093  0.81221465    -0.19500
F1039       F  0.30371252  0.70712535  0.80649407    -0.19800
F1040       F  0.31395803  0.67972650  0.76700978    -0.22500
C1041       C  0.14922769  0.50728068  0.76027132    -0.05400
C1042       C  0.12652769  0.52904875  0.76090780     0.00600
C1043       C  0.13146649  0.55632243  0.74592980    -0.08000
C1044       C  0.15999507  0.56204270  0.73445614    -0.05400
C1045       C  0.18442109  0.54215614  0.73761123     0.00600
C1046       C  0.17800153  0.51293426  0.74848228    -0.07900
C1047       C  0.20036421  0.48756556  0.74831205     0.62500
H1048       H  0.14463908  0.48595983  0.77065728     0.13200
H1049       H  0.16402910  0.58384421  0.72514616     0.13200
C1050       C  0.10782909  0.58059873  0.74410478     0.62700
F1051       F  0.18730681  0.46061133  0.75549762    -0.22500
F1052       F  0.22212719  0.49251569  0.76899184    -0.19800
F1053       F  0.21257439  0.48475970  0.72016000    -0.19500
F1054       F  0.10093887  0.59053363  0.77230262    -0.19500
F1055       F  0.08260729  0.56970133  0.73097733    -0.19800
F1056       F  0.11719609  0.60479817  0.72728868    -0.22500
C1057       C  0.16561939  0.71828173  0.88313966    -0.05400
C1058       C  0.19101915  0.70204045  0.89177856     0.00600
C1059       C  0.18724821  0.67492256  0.90769435    -0.08000
C1060       C  0.15843806  0.66634699  0.91615455    -0.05400
C1061       C  0.13277981  0.68226311  0.90759615     0.00600
C1062       C  0.13642228  0.70866497  0.89030393    -0.07900
C1063       C  0.10999266  0.72654731  0.87922374     0.62500
H1064       H  0.16890474  0.73842665  0.87017338     0.13200
H1065       H  0.15584753  0.64602525  0.92894647     0.13200
C1066       C  0.21295448  0.65359590  0.91402276     0.62700
F1067       F  0.11869229  0.75186245  0.86376552    -0.22500
F1068       F  0.09238847  0.73526670  0.90298202    -0.19800
F1069       F  0.09350000  0.70948791  0.86027078    -0.19500
F1070       F  0.22933233  0.64881899  0.88835234    -0.19500
F1071       F  0.20310135  0.62617418  0.92414199    -0.19800
F1072       F  0.23106453  0.66489930  0.93555143    -0.22500
C1073       C  0.35306058  0.72320573  0.91543881    -0.05400
C1074       C  0.35280908  0.75223731  0.92620795     0.00600
C1075       C  0.32525526  0.76765855  0.92932854    -0.08000
C1076       C  0.29952759  0.75438085  0.91859444    -0.05400
C1077       C  0.30039196  0.72701474  0.90390019     0.00600
C1078       C  0.32673797  0.70936770  0.90651959    -0.07900
C1079       C  0.32765837  0.67574715  0.90487483     0.62500
H1080       H  0.37378636  0.71073156  0.91535984     0.13200
H1081       H  0.27868616  0.76657716  0.91917217     0.13200
C1082       C  0.32296947  0.79893650  0.94174787     0.62700
F1083       F  0.34343143  0.66426387  0.92864694    -0.22500
F1084       F  0.34197481  0.66710979  0.87901050    -0.19800
F1085       F  0.29955159  0.66360327  0.90662133    -0.19500
F1086       F  0.34213600  0.81762447  0.92639088    -0.19500
F1087       F  0.33001724  0.79847631  0.97151834    -0.19800
F1088       F  0.29458692  0.81077730  0.93927252    -0.22500
C1089       C  0.32358183  0.90508373  0.79124546    -0.05400
C1090       C  0.34977850  0.89739014  0.77568897     0.00600
C1091       C  0.34745614  0.88309939  0.74802069    -0.08000
C1092       C  0.31889005  0.87641607  0.73746550    -0.05400
C1093       C  0.29280390  0.88284777  0.75378735     0.00600
C1094       C  0.29522208  0.89725227  0.78152531    -0.07900
C1095       C  0.26950373  0.90420924  0.80268792     0.62500
H1096       H  0.32528934  0.91617338  0.81237834     0.13200
H1097       H  0.31667029  0.86610513  0.71612623     0.13200
C1098       C  0.37471610  0.87585880  0.72924433     0.62700
F1099       F  0.27656638  0.89444635  0.83098695    -0.22500
F1100       F  0.24321678  0.89081494  0.79555247    -0.19800
F1101       F  0.26494570  0.93462526  0.80323184    -0.19500
F1102       F  0.39188170  0.85456229  0.74344204    -0.19500
F1103       F  0.39127501  0.90129605  0.72461891    -0.19800
F1104       F  0.36719999  0.86489567  0.70179808    -0.22500
C1105       C  0.41698719  0.83224740  0.22241892    -0.05400
C1106       C  0.42488524  0.83023498  0.19239387     0.00600
C1107       C  0.42705510  0.80172646  0.17927655    -0.08000
C1108       C  0.41895898  0.77669607  0.19633727    -0.05400
C1109       C  0.40788066  0.77882684  0.22562446     0.00600
C1110       C  0.41060875  0.80686734  0.23994314    -0.07900
C1111       C  0.41083859  0.81118772  0.27326474     0.62500
H1112       H  0.41716661  0.85391917  0.23265243     0.13200
H1113       H  0.41891813  0.75509686  0.18602980     0.13200
C1114       C  0.43576909  0.79752221  0.14682453     0.62700
F1115       F  0.43171873  0.83222866  0.28057209    -0.22500
F1116       F  0.41874276  0.78529206  0.28812199    -0.19800
F1117       F  0.38333128  0.82145668  0.28288435    -0.19500
F1118       F  0.46516269  0.80522499  0.14226873    -0.19500
F1119       F  0.41775038  0.81498329  0.12895026    -0.19800
F1120       F  0.43275123  0.76833363  0.13803202    -0.22500
C1121       C  0.27738704  0.71516183  0.17686853    -0.05400
C1122       C  0.28887253  0.70932420  0.14852615     0.00600
C1123       C  0.31970177  0.70303441  0.14490757    -0.08000
C1124       C  0.33766947  0.70244249  0.17018239    -0.05400
C1125       C  0.32669403  0.71100139  0.19808140     0.00600
C1126       C  0.29611611  0.71802742  0.20135222    -0.07900
C1127       C  0.28401948  0.73186704  0.22937397     0.62500
H1128       H  0.25397547  0.72069099  0.17899305     0.13200
H1129       H  0.36133487  0.69823388  0.16754479     0.13200
C1130       C  0.33547200  0.69835693  0.11531648     0.62700
F1131       F  0.25417196  0.73908127  0.22727450    -0.22500
F1132       F  0.29906940  0.75786596  0.23436767    -0.19800
F1133       F  0.28769231  0.71232802  0.25293093    -0.19500
F1134       F  0.31682005  0.69998507  0.09126903    -0.19500
F1135       F  0.34908855  0.67068867  0.11545619    -0.19800
F1136       F  0.35711128  0.71980173  0.11152273    -0.22500
C1137       C  0.25093131  0.80173571  0.09211203    -0.05400
C1138       C  0.24769336  0.77834570  0.07178137     0.00600
C1139       C  0.24850138  0.78595194  0.04103652    -0.08000
C1140       C  0.26128032  0.81328005  0.03247807    -0.05400
C1141       C  0.26891139  0.83483854  0.05334635     0.00600
C1142       C  0.26080081  0.83008434  0.08344564    -0.07900
C1143       C  0.26395346  0.85391022  0.10674421     0.62500
H1144       H  0.24746265  0.79695651  0.11549858     0.13200
H1145       H  0.26508860  0.81799453  0.00909348     0.13200
C1146       C  0.23347672  0.76838145  0.01705757     0.62700
F1147       F  0.25259981  0.84489232  0.13406042    -0.22500
F1148       F  0.24842440  0.87916326  0.09810958    -0.19800
F1149       F  0.29362059  0.86063544  0.11028175    -0.19500
F1150       F  0.25413211  0.75056895  0.00267691    -0.19500
F1151       F  0.22107367  0.78750830  0.99622810    -0.19800
F1152       F  0.21041567  0.75150766  0.02858258    -0.22500
C1153       C  0.43574722  0.63488188  0.28372662    -0.05400
C1154       C  0.41864318  0.60993381  0.27686794     0.00600
C1155       C  0.39474012  0.61373559  0.25689040    -0.08000
C1156       C  0.38829725  0.64257701  0.24574058    -0.05400
C1157       C  0.40421676  0.66786152  0.25434869     0.00600
C1158       C  0.42895822  0.66377545  0.27349920    -0.07900
C1159       C  0.44852289  0.68903036  0.28402558     0.62500
H1160       H  0.45441678  0.63176597  0.29821520     0.13200
H1161       H  0.36982782  0.64577779  0.23085734     0.13200
C1162       C  0.37576043  0.58780411  0.24759130     0.62700
F1163       F  0.46540060  0.68057676  0.30820768    -0.22500
F1164       F  0.43173004  0.71325424  0.29283349    -0.19800
F1165       F  0.46797855  0.69727826  0.26149056    -0.19500
F1166       F  0.35989534  0.57694352  0.27180851    -0.19500
F1167       F  0.39372045  0.56553953  0.23609274    -0.19800
F1168       F  0.35553901  0.59599406  0.22604024    -0.22500
C1169       C  0.31362173  0.75305031  0.29853618    -0.05400
C1170       C  0.33366055  0.72903335  0.29788350     0.00600
C1171       C  0.33239519  0.70720321  0.32079618    -0.08000
C1172       C  0.30982108  0.70957213  0.34255180    -0.05400
C1173       C  0.28873763  0.73272952  0.34198135     0.00600
C1174       C  0.29023071  0.75472301  0.31917704    -0.07900
C1175       C  0.26663465  0.77887030  0.31485314     0.62500
H1176       H  0.31604534  0.77052403  0.28207987     0.13200
H1177       H  0.30821774  0.69303874  0.36015096     0.13200
C1178       C  0.35536045  0.68247340  0.32346010     0.62700
F1179       F  0.26889770  0.80034100  0.33625591    -0.22500
F1180       F  0.23858201  0.76664473  0.31606886    -0.19800
F1181       F  0.26967273  0.79305933  0.28755430    -0.19500
F1182       F  0.38355165  0.69418268  0.32127169    -0.19500
F1183       F  0.35151147  0.66195875  0.30139340    -0.19800
F1184       F  0.35316197  0.66762807  0.35048507    -0.22500
C1185       C  0.24254672  0.64365073  0.40577094    -0.05400
C1186       C  0.25609617  0.66948538  0.41614083     0.00600
C1187       C  0.28079259  0.66690001  0.43512630    -0.08000
C1188       C  0.29035620  0.63838712  0.44381172    -0.05400
C1189       C  0.27786449  0.61228130  0.43247842     0.00600
C1190       C  0.25319117  0.61495475  0.41320714    -0.07900
C1191       C  0.23838200  0.58807561  0.39997596     0.62500
H1192       H  0.22411200  0.64622852  0.39071839     0.13200
H1193       H  0.30907150  0.63647267  0.45856404     0.13200
C1194       C  0.29875641  0.69373159  0.44431670     0.62700
F1195       F  0.21340216  0.59589007  0.38392275    -0.22500
F1196       F  0.22961646  0.56867609  0.42239060    -0.19800
F1197       F  0.25800148  0.57386504  0.38091154    -0.19500
F1198       F  0.30602182  0.71085964  0.41963333    -0.19500
F1199       F  0.32507338  0.68543397  0.45781245    -0.19800
F1200       F  0.28268717  0.71069445  0.46425482    -0.22500
C1201       C  0.17514239  0.80816127  0.43325608    -0.05400
C1202       C  0.19214279  0.83408743  0.43029254     0.00600
C1203       C  0.22320815  0.83122890  0.42603267    -0.08000
C1204       C  0.23531538  0.80263570  0.42119758    -0.05400
C1205       C  0.21735704  0.77704238  0.41934715     0.00600
C1206       C  0.18734791  0.77968838  0.42964653    -0.07900
C1207       C  0.16664653  0.75395534  0.43687249     0.62500
H1208       H  0.15161022  0.81002066  0.43847283     0.13200
H1209       H  0.25903255  0.80049642  0.41843587     0.13200
C1210       C  0.24353910  0.85794937  0.42678895     0.62700
F1211       F  0.15153796  0.75951082  0.46318029    -0.22500
F1212       F  0.18133831  0.72728734  0.44061068    -0.19800
F1213       F  0.14594756  0.75128999  0.41470647    -0.19500
F1214       F  0.23889421  0.87317505  0.45293664    -0.19500
F1215       F  0.23780823  0.87661427  0.40292493    -0.19800
F1216       F  0.27324788  0.84977331  0.42528739    -0.22500
C1217       C  0.15725895  0.68653544  0.17600389    -0.05400
C1218       C  0.14759621  0.71132664  0.19237710     0.00600
C1219       C  0.15872007  0.73968161  0.18382230    -0.08000
C1220       C  0.18177491  0.74120108  0.16234825    -0.05400
C1221       C  0.19040670  0.71636943  0.14541568     0.00600
C1222       C  0.17575178  0.68914971  0.15097138    -0.07900
C1223       C  0.17586678  0.66373285  0.12930550     0.62500
H1224       H  0.14938211  0.66460293  0.18193639     0.13200
H1225       H  0.19215959  0.76243950  0.15785178     0.13200
C1226       C  0.14551614  0.76880366  0.19443899     0.62700
F1227       F  0.14918472  0.64862147  0.13073866    -0.22500
F1228       F  0.19836690  0.64389866  0.13602198    -0.19800
F1229       F  0.17896077  0.67426284  0.10060088    -0.19500
F1230       F  0.16227680  0.77981694  0.21723764    -0.19500
F1231       F  0.11645485  0.76549254  0.20377246    -0.19800
F1232       F  0.14531033  0.78948292  0.17141695    -0.22500
C1233       C  0.20537654  0.70475103  0.31066604    -0.05400
C1234       C  0.19532986  0.70230972  0.34016144     0.00600
C1235       C  0.16677479  0.69079008  0.34626429    -0.08000
C1236       C  0.14727014  0.68745943  0.32269036    -0.05400
C1237       C  0.15596472  0.69373113  0.29326193     0.00600
C1238       C  0.18622452  0.69964497  0.28688395    -0.07900
C1239       C  0.19875955  0.69951960  0.25556516     0.62500
H1240       H  0.22803578  0.71163559  0.30625537     0.13200
H1241       H  0.12468831  0.68062539  0.32759933     0.13200
C1242       C  0.15592881  0.68089999  0.37676006     0.62700
F1243       F  0.19441452  0.72696076  0.24224510    -0.22500
F1244       F  0.18540365  0.67780278  0.23904006    -0.19800
F1245       F  0.22888192  0.69323361  0.25569009    -0.19500
F1246       F  0.13155050  0.69789111  0.38503780    -0.19500
F1247       F  0.17731724  0.68296849  0.39829495    -0.19800
F1248       F  0.14748144  0.65145442  0.37552494    -0.22500
C1249       C  0.06592388  0.77587875  0.24370179    -0.05400
C1250       C  0.08411811  0.75974364  0.26344755     0.00600
C1251       C  0.09311217  0.77361554  0.29001556    -0.08000
C1252       C  0.08502313  0.80343385  0.29494339    -0.05400
C1253       C  0.06733487  0.81960274  0.27505643     0.00600
C1254       C  0.05735797  0.80567980  0.24909095    -0.07900
C1255       C  0.03856040  0.82265218  0.22689138     0.62500
H1256       H  0.05873704  0.76499609  0.22376721     0.13200
H1257       H  0.09175870  0.81423917  0.31510589     0.13200
C1258       C  0.11005061  0.75698290  0.31390248     0.62700
F1259       F  0.03357089  0.80623295  0.20170848    -0.22500
F1260       F  0.05294011  0.84850441  0.21841120    -0.19800
F1261       F  0.01133449  0.82978768  0.23955145    -0.19500
F1262       F  0.13903558  0.75267899  0.30458603    -0.19500
F1263       F  0.09658139  0.73003348  0.31981202    -0.19800
F1264       F  0.11066192  0.77249460  0.34023628    -0.22500
C1265       C  0.04069448  0.64847072  0.23504779    -0.05400
C1266       C  0.07154302  0.64652258  0.24016148     0.00600
C1267       C  0.08608425  0.61818494  0.23517977    -0.08000
C1268       C  0.06958849  0.59502679  0.22315378    -0.05400
C1269       C  0.04016476  0.59860432  0.21452667     0.00600
C1270       C  0.02473323  0.62495862  0.22236959    -0.07900
C1271       C  0.99156627  0.62833479  0.21766198     0.62500
H1272       H  0.02920770  0.66920842  0.23885556     0.13200
H1273       H  0.08034418  0.57399222  0.21847758     0.13200
C1274       C  0.11880787  0.61085377  0.24167969     0.62700
F1275       F  0.98012138  0.65222516  0.23311253    -0.22500
F1276       F  0.97710246  0.60312252  0.22784019    -0.19800
F1277       F  0.98568878  0.63280213  0.18791144    -0.19500
F1278       F  0.12280405  0.60772707  0.27187955    -0.19500
F1279       F  0.13767975  0.63216614  0.23020001    -0.19800
F1280       F  0.12789439  0.58421329  0.22928665    -0.22500
C1281       C  0.21348098  0.66528536  0.04544319    -0.05400
C1282       C  0.23307530  0.66363007  0.06950091     0.00600
C1283       C  0.23913901  0.63516776  0.08216112    -0.08000
C1284       C  0.22126347  0.61094934  0.07441036    -0.05400
C1285       C  0.19936911  0.61346936  0.05254919     0.00600
C1286       C  0.19714986  0.64067996  0.03609323    -0.07900
C1287       C  0.17731242  0.64463440  0.00913406     0.62500
H1288       H  0.20902333  0.68668819  0.03523467     0.13200
H1289       H  0.22452162  0.58980680  0.08572962     0.13200
C1290       C  0.26475784  0.62864275  0.10278241     0.62700
F1291       F  0.18318541  0.67084865  0.99382270    -0.22500
F1292       F  0.14774901  0.64539538  0.01790236    -0.19800
F1293       F  0.18215405  0.62157725  0.98959244    -0.19500
F1294       F  0.25404188  0.62118906  0.13073759    -0.19500
F1295       F  0.28378874  0.65230381  0.10492190    -0.19800
F1296       F  0.28111466  0.60487578  0.09195576    -0.22500
C1297       C  0.23221521  0.41109890  0.81878065    -0.05400
C1298       C  0.22979422  0.38038423  0.81351940     0.00600
C1299       C  0.22079159  0.36144390  0.83794481    -0.08000
C1300       C  0.21042704  0.37471525  0.86410321    -0.05400
C1301       C  0.20863688  0.40545383  0.86712540     0.00600
C1302       C  0.22145155  0.42404563  0.84503534    -0.07900
C1303       C  0.22364719  0.45743434  0.84891606     0.62500
H1304       H  0.24186848  0.42549711  0.80213821     0.13200
H1305       H  0.20147498  0.36068168  0.88175531     0.13200
C1306       C  0.21961649  0.32743183  0.83889145     0.62700
F1307       F  0.24329971  0.47005669  0.82861563    -0.22500
F1308       F  0.23371283  0.46355826  0.87704387    -0.19800
F1309       F  0.19613118  0.47065455  0.84491646    -0.19500
F1310       F  0.23039641  0.31308951  0.81420909    -0.19500
F1311       F  0.19042434  0.31877800  0.84316311    -0.19800
F1312       F  0.23602507  0.31719410  0.86274572    -0.22500
C1313       C  0.14057543  0.30072823  0.73114130    -0.05400
C1314       C  0.14950621  0.27365655  0.71902452     0.00600
C1315       C  0.17889724  0.27027693  0.70806817    -0.08000
C1316       C  0.20009787  0.29184032  0.71558136    -0.05400
C1317       C  0.19173148  0.31782412  0.73081250     0.00600
C1318       C  0.16080342  0.32380597  0.73507617    -0.07900
C1319       C  0.14773672  0.35417489  0.74227774     0.62500
H1320       H  0.11730504  0.30420671  0.73674334     0.13200
H1321       H  0.22324096  0.28818251  0.70994519     0.13200
C1322       C  0.18724019  0.24498887  0.68745116     0.62700
F1323       F  0.12416300  0.36023500  0.72365917    -0.22500
F1324       F  0.16800214  0.37682013  0.73820499    -0.19800
F1325       F  0.13723128  0.35428584  0.77121980    -0.19500
F1326       F  0.17182649  0.24851537  0.66128677    -0.19500
F1327       F  0.18004294  0.21773486  0.69983022    -0.19800
F1328       F  0.21733044  0.24475927  0.68071755    -0.22500
C1329       C  0.09499157  0.26779278  0.79667620    -0.05400
C1330       C  0.07890832  0.24427538  0.78458897     0.00600
C1331       C  0.05778859  0.22923225  0.80302186    -0.08000
C1332       C  0.05246779  0.23961834  0.83204839    -0.05400
C1333       C  0.06854523  0.26318448  0.84374970     0.00600
C1334       C  0.09043834  0.27736565  0.82595679    -0.07900
C1335       C  0.10806347  0.30339251  0.83742349     0.62500
H1336       H  0.11143520  0.27877637  0.78288654     0.13200
H1337       H  0.03548408  0.22946522  0.84596265     0.13200
C1338       C  0.04187702  0.20158531  0.79312242     0.62700
F1339       F  0.12808155  0.31409972  0.81643787    -0.22500
F1340       F  0.12400442  0.29458196  0.86207468    -0.19800
F1341       F  0.08890278  0.32634400  0.84501841    -0.19500
F1342       F  0.06253650  0.18089685  0.78339728    -0.19500
F1343       F  0.02229160  0.20863996  0.77074258    -0.19800
F1344       F  0.02564413  0.18855285  0.81603174    -0.22500
C1345       C  0.28430321  0.42557939  0.66849777    -0.05400
C1346       C  0.27546341  0.41083791  0.64270368     0.00600
C1347       C  0.25398222  0.38802178  0.64568017    -0.08000
C1348       C  0.24364044  0.38001010  0.67437371    -0.05400
C1349       C  0.25490295  0.39267023  0.70031914     0.00600
C1350       C  0.27526400  0.41663136  0.69726030    -0.07900
C1351       C  0.28864269  0.43259596  0.72351304     0.62500
H1352       H  0.29963008  0.44380423  0.66612124     0.13200
H1353       H  0.22738363  0.36254229  0.67684878     0.13200
C1354       C  0.24256298  0.37132506  0.61913326     0.62700
F1355       F  0.31270863  0.44986402  0.71501710    -0.22500
F1356       F  0.29867894  0.41247585  0.74456556    -0.19800
F1357       F  0.26764854  0.45132659  0.73603420    -0.19500
F1358       F  0.26561275  0.35556677  0.60598234    -0.19500
F1359       F  0.23053523  0.39118392  0.59883730    -0.19800
F1360       F  0.22067437  0.35120448  0.62709507    -0.22500
C1361       C  0.33833943  0.28607144  0.75432064    -0.05400
C1362       C  0.32567110  0.25813251  0.74940866     0.00600
C1363       C  0.29428782  0.25549075  0.74960136    -0.08000
C1364       C  0.27682740  0.28117364  0.75294381    -0.05400
C1365       C  0.28955733  0.30921898  0.75490987     0.00600
C1366       C  0.32077953  0.31192645  0.75680859    -0.07900
C1367       C  0.33558040  0.34194561  0.75961132     0.62500
H1368       H  0.36234505  0.28767940  0.75425131     0.13200
H1369       H  0.25283506  0.27975465  0.75298514     0.13200
C1370       C  0.27901512  0.22670594  0.74287581     0.62700
F1371       F  0.36625862  0.33940739  0.76002144    -0.22500
F1372       F  0.32668376  0.35546392  0.78561938    -0.19800
F1373       F  0.32790939  0.35985790  0.73575277    -0.19500
F1374       F  0.28802618  0.20456696  0.76227347    -0.19500
F1375       F  0.28599974  0.21932355  0.71409144    -0.19800
F1376       F  0.24841080  0.22906465  0.74528156    -0.22500
C1377       C  0.43033286  0.26097750  0.64714332    -0.05400
C1378       C  0.41814036  0.25227020  0.62018232     0.00600
C1379       C  0.39792441  0.22840853  0.62030527    -0.08000
C1380       C  0.38971957  0.21519563  0.64770925    -0.05400
C1381       C  0.40048077  0.22496647  0.67535892     0.00600
C1382       C  0.42147184  0.24892198  0.67473851    -0.07900
C1383       C  0.43530115  0.26286813  0.70213976     0.62500
H1384       H  0.44645418  0.27866586  0.64659081     0.13200
H1385       H  0.37269637  0.19866768  0.64720710     0.13200
C1386       C  0.38434517  0.21717302  0.59189140     0.62700
F1387       F  0.45739008  0.24441725  0.71304476    -0.22500
F1388       F  0.41437343  0.26858304  0.72399928    -0.19800
F1389       F  0.44849767  0.28988418  0.69548876    -0.19500
F1390       F  0.40657892  0.21106783  0.57133501    -0.19500
F1391       F  0.36513813  0.23839801  0.58042078    -0.19800
F1392       F  0.36836087  0.19134809  0.59660235    -0.22500
C1393       C  0.43301428  0.16637247  0.81851422    -0.05400
C1394       C  0.41820944  0.17644807  0.84422370     0.00600
C1395       C  0.39496754  0.19772713  0.84095796    -0.08000
C1396       C  0.38712326  0.20721247  0.81207286    -0.05400
C1397       C  0.40058658  0.19536811  0.78637861     0.00600
C1398       C  0.42431405  0.17446953  0.78969945    -0.07900
C1399       C  0.44074893  0.15967621  0.76387635     0.62500
H1400       H  0.45120841  0.15080216  0.82098826     0.13200
H1401       H  0.36945576  0.22343661  0.80927967     0.13200
C1402       C  0.37796025  0.21005928  0.86741691     0.62700
F1403       F  0.45497685  0.13373652  0.77282161    -0.22500
F1404       F  0.46223625  0.17863641  0.75265307    -0.19800
F1405       F  0.42157892  0.15194725  0.74162668    -0.19500
F1406       F  0.39758511  0.22164716  0.88752262    -0.19500
F1407       F  0.36157294  0.18770116  0.88089522    -0.19800
F1408       F  0.35840597  0.23253880  0.85922193    -0.22500
C1409       C  0.12860707  0.14394290  0.74870101    -0.05400
C1410       C  0.14149273  0.17229970  0.74954652     0.00600
C1411       C  0.17115631  0.17410606  0.76022708    -0.08000
C1412       C  0.18893110  0.14814209  0.75953624    -0.05400
C1413       C  0.17683041  0.12032708  0.75326235     0.00600
C1414       C  0.14555376  0.11792294  0.75201696    -0.07900
C1415       C  0.12899854  0.08885489  0.75454102     0.62500
H1416       H  0.10497944  0.14198850  0.74477281     0.13200
H1417       H  0.21262748  0.14974001  0.76286871     0.13200
C1418       C  0.18373284  0.20146085  0.77476196     0.62700
F1419       F  0.10840579  0.09068892  0.77751297    -0.22500
F1420       F  0.14753751  0.06505314  0.76065477    -0.19800
F1421       F  0.11413937  0.08374627  0.72847162    -0.19500
F1422       F  0.16563857  0.20938779  0.79844364    -0.19500
F1423       F  0.18603676  0.22480600  0.75494945    -0.19800
F1424       F  0.21180272  0.19607753  0.78598490    -0.22500
C1425       C  0.29476640  0.11908089  0.75272780    -0.05400
C1426       C  0.27291546  0.12214913  0.73095762     0.00600
C1427       C  0.27609516  0.14421845  0.70852569    -0.08000
C1428       C  0.30246767  0.16043424  0.70703157    -0.05400
C1429       C  0.32372400  0.15871027  0.72951021     0.00600
C1430       C  0.32025592  0.13713073  0.75255315    -0.07900
C1431       C  0.34422565  0.13112412  0.77528958     0.62500
H1432       H  0.29207641  0.10185222  0.76949508     0.13200
H1433       H  0.30564911  0.17609795  0.68883626     0.13200
C1434       C  0.25211208  0.15191580  0.68613853     0.62700
F1435       F  0.34377644  0.15287013  0.79659256    -0.22500
F1436       F  0.37172961  0.13039628  0.76146418    -0.19800
F1437       F  0.34029164  0.10397209  0.78951144    -0.19500
F1438       F  0.22430704  0.14226091  0.69514342    -0.19500
F1439       F  0.25943060  0.13942931  0.65913123    -0.19800
F1440       F  0.25003638  0.18240207  0.68236420    -0.22500
C1441       C  0.24775783  0.03025423  0.83787332    -0.05400
C1442       C  0.27880537  0.02660936  0.83649084     0.00600
C1443       C  0.29384294  0.03027704  0.80862591    -0.08000
C1444       C  0.27729182  0.03894223  0.78373584    -0.05400
C1445       C  0.24667797  0.04387376  0.78558602     0.00600
C1446       C  0.23133604  0.03863441  0.81263971    -0.07900
C1447       C  0.19787223  0.04212651  0.81471398     0.62500
H1448       H  0.23647636  0.02691819  0.85900171     0.13200
H1449       H  0.28827499  0.04286977  0.76253721     0.13200
C1450       C  0.32730658  0.02629272  0.80491550     0.62700
F1451       F  0.18673908  0.03169387  0.84161435    -0.22500
F1452       F  0.18474162  0.02620237  0.79241919    -0.19800
F1453       F  0.19022315  0.07180321  0.81171526    -0.19500
F1454       F  0.33499685  0.99678858  0.80948735    -0.19500
F1455       F  0.34194922  0.04385686  0.82491358    -0.19800
F1456       F  0.33711808  0.03434686  0.77671948    -0.22500
C1457       C  0.22895300  0.04784706  0.65270679    -0.05400
C1458       C  0.21071617  0.04470598  0.67849746     0.00600
C1459       C  0.18302077  0.02978305  0.67517103    -0.08000
C1460       C  0.17269431  0.02469304  0.64649947    -0.05400
C1461       C  0.18896297  0.03259328  0.62099588     0.00600
C1462       C  0.21820616  0.04292083  0.62391949    -0.07900
C1463       C  0.23793947  0.04835055  0.59687411     0.62500
H1464       H  0.25166944  0.05467626  0.65464600     0.13200
H1465       H  0.15078585  0.01517708  0.64402156     0.13200
C1466       C  0.16218836  0.01938100  0.69999815     0.62700
F1467       F  0.26680271  0.05495733  0.60460426    -0.22500
F1468       F  0.22686506  0.07196486  0.58039684    -0.19800
F1469       F  0.23877263  0.02321274  0.57952241    -0.19500
F1470       F  0.13594189  0.03546729  0.69861037    -0.19500
F1471       F  0.17347089  0.02180074  0.72800517    -0.19800
F1472       F  0.15569417  0.98975124  0.69603028    -0.22500
C1473       C  0.06467364  0.22935366  0.65010490    -0.05400
C1474       C  0.06572906  0.21108349  0.67601465     0.00600
C1475       C  0.04921950  0.18397157  0.67541074    -0.08000
C1476       C  0.03826118  0.17414125  0.64826868    -0.05400
C1477       C  0.04129551  0.19047500  0.62177667     0.00600
C1478       C  0.05285466  0.21946355  0.62301083    -0.07900
C1479       C  0.05216175  0.23999686  0.59607896     0.62500
H1480       H  0.07329268  0.25154938  0.65065382     0.13200
H1481       H  0.02776503  0.15253930  0.64776174     0.13200
C1482       C  0.04242842  0.16328285  0.70154009     0.62700
F1483       F  0.05912015  0.26889777  0.60325903    -0.22500
F1484       F  0.02398147  0.24024579  0.58409307    -0.19800
F1485       F  0.07248486  0.23033081  0.57499768    -0.19500
F1486       F  0.01203688  0.15888458  0.70343330    -0.19500
F1487       F  0.05116687  0.17373249  0.72839951    -0.19800
F1488       F  0.05625419  0.13611991  0.69695658    -0.22500
C1489       C  0.55879671  0.10297915  0.74629459    -0.05400
C1490       C  0.54708687  0.10278801  0.77518694     0.00600
C1491       C  0.54002882  0.13025833  0.78896035    -0.08000
C1492       C  0.54913403  0.15672668  0.77489703    -0.05400
C1493       C  0.56504299  0.15664832  0.74789803     0.00600
C1494       C  0.56525609  0.12981767  0.73133310    -0.07900
C1495       C  0.56756423  0.12839351  0.69775386     0.62500
H1496       H  0.56131109  0.08209957  0.73473296     0.13200
H1497       H  0.54630593  0.17765863  0.78621776     0.13200
C1498       C  0.52525665  0.13185610  0.81944527     0.62700
F1499       F  0.54396769  0.11225357  0.68716214    -0.22500
F1500       F  0.59367647  0.11411639  0.68947466    -0.19800
F1501       F  0.56607621  0.15619082  0.68443350    -0.19500
F1502       F  0.54290892  0.11751133  0.84011760    -0.19500
F1503       F  0.49768924  0.11864017  0.81901902    -0.19800
F1504       F  0.52094192  0.16088481  0.82848125    -0.22500
C1505       C  0.55252226  0.29721345  0.67646550    -0.05400
C1506       C  0.56240269  0.32306575  0.69040514     0.00600
C1507       C  0.57789550  0.32025867  0.71748665    -0.08000
C1508       C  0.58290543  0.29149798  0.72941032    -0.05400
C1509       C  0.57345807  0.26568416  0.71501303     0.00600
C1510       C  0.55817009  0.26858255  0.68780565    -0.07900
C1511       C  0.54894831  0.24194308  0.66968431     0.62500
H1512       H  0.54080198  0.29953797  0.65573428     0.13200
H1513       H  0.59516442  0.28885809  0.74979508     0.13200
C1514       C  0.58921782  0.34716860  0.73369616     0.62700
F1515       F  0.53947923  0.25027291  0.64165530    -0.22500
F1516       F  0.52566142  0.22746980  0.68368401    -0.19800
F1517       F  0.57267794  0.22255534  0.66607253    -0.19500
F1518       F  0.56635849  0.36748996  0.73783837    -0.19500
F1519       F  0.61184016  0.36027824  0.71728511    -0.19800
F1520       F  0.60029793  0.33958895  0.76132383    -0.22500
C1521       C  0.69283723  0.18547253  0.66492467    -0.05400
C1522       C  0.68897211  0.20603225  0.64164367     0.00600
C1523       C  0.66711742  0.22871924  0.64439453    -0.08000
C1524       C  0.64853686  0.22851198  0.66967622    -0.05400
C1525       C  0.65077478  0.20622213  0.69153781     0.00600
C1526       C  0.67421840  0.18503543  0.68997742    -0.07900
C1527       C  0.68113812  0.16154482  0.71350616     0.62500
H1528       H  0.71036231  0.16893637  0.66320170     0.13200
H1529       H  0.63073878  0.24474389  0.67167950     0.13200
C1530       C  0.66154511  0.25148226  0.62002577     0.62700
F1531       F  0.71034331  0.16448663  0.72217433    -0.22500
F1532       F  0.67773111  0.13366064  0.70150791    -0.19800
F1533       F  0.66350450  0.16339770  0.73867393    -0.19500
F1534       F  0.65462712  0.23688589  0.59434464    -0.19500
F1535       F  0.68634702  0.26882165  0.61537895    -0.19800
F1536       F  0.63808752  0.27038729  0.62691081    -0.22500
C1537       C  0.68997197  0.25316764  0.54365815    -0.05400
C1538       C  0.71883596  0.25176378  0.55479392     0.00600
C1539       C  0.73570416  0.27826401  0.55578114    -0.08000
C1540       C  0.72243308  0.30547266  0.54670695    -0.05400
C1541       C  0.69274574  0.30718242  0.53736980     0.00600
C1542       C  0.67596324  0.28041425  0.53648918    -0.07900
C1543       C  0.64268541  0.28043741  0.53064170     0.62500
H1544       H  0.67757518  0.23269007  0.54278348     0.13200
H1545       H  0.73507382  0.32580490  0.54750878     0.13200
C1546       C  0.76782926  0.27790783  0.56568294     0.62700
F1547       F  0.63019713  0.25282972  0.53588527    -0.22500
F1548       F  0.63728355  0.28812839  0.50147147    -0.19800
F1549       F  0.62843722  0.30042076  0.54920283    -0.19500
F1550       F  0.78281967  0.25410286  0.55325909    -0.19500
F1551       F  0.76918332  0.27575396  0.59621204    -0.19800
F1552       F  0.78240055  0.30356199  0.55688480    -0.22500
C1553       C  0.66361965  0.23852211  0.83255883    -0.05400
C1554       C  0.69263541  0.23199344  0.82218171     0.00600
C1555       C  0.69687920  0.22545369  0.79165524    -0.08000
C1556       C  0.67192529  0.22226859  0.77380566    -0.05400
C1557       C  0.64310366  0.22616393  0.78482452     0.00600
C1558       C  0.63867688  0.23621188  0.81407541    -0.07900
C1559       C  0.60809796  0.24591284  0.82490366     0.62500
H1560       H  0.66055294  0.24519067  0.85537446     0.13200
H1561       H  0.67477325  0.21642583  0.75078954     0.13200
C1562       C  0.72716816  0.22399598  0.77688271     0.62700
F1563       F  0.60890200  0.25717718  0.85330671    -0.22500
F1564       F  0.58879501  0.22221446  0.82511056    -0.19800
F1565       F  0.59724383  0.26793538  0.80618972    -0.19500
F1566       F  0.74288732  0.19966483  0.78697914    -0.19500
F1567       F  0.74208556  0.24988528  0.78252519    -0.19800
F1568       F  0.72528448  0.22146123  0.74643690    -0.22500
C1569       C  0.73308288  0.14202974  0.88529479    -0.05400
C1570       C  0.71767804  0.16771099  0.89430538     0.00600
C1571       C  0.69212459  0.16463979  0.91284012    -0.08000
C1572       C  0.68416661  0.13613531  0.92290703    -0.05400
C1573       C  0.69875775  0.11018563  0.91302338     0.00600
C1574       C  0.72386921  0.11321387  0.89387759    -0.07900
C1575       C  0.74103265  0.08646544  0.88253181     0.62500
H1576       H  0.75246537  0.14474225  0.87119289     0.13200
H1577       H  0.66500725  0.13412719  0.93758268     0.13200
C1578       C  0.67164662  0.19029329  0.92146570     0.62700
F1579       F  0.76669220  0.09463535  0.86735552    -0.22500
F1580       F  0.72352096  0.07081321  0.86329012    -0.19800
F1581       F  0.74917725  0.06829256  0.90607896    -0.19500
F1582       F  0.67315341  0.21367818  0.90146169    -0.19500
F1583       F  0.67892038  0.20009644  0.94938490    -0.19800
F1584       F  0.64234928  0.18110159  0.92212903    -0.22500
C1585       C  0.82534722  0.19972683  0.78820740    -0.05400
C1586       C  0.83065220  0.22863824  0.77699479     0.00600
C1587       C  0.81445869  0.25295770  0.78935470    -0.08000
C1588       C  0.79436167  0.24716434  0.81243957    -0.05400
C1589       C  0.78914463  0.21853452  0.82402813     0.00600
C1590       C  0.80500335  0.19424737  0.81181175    -0.07900
C1591       C  0.80094444  0.16296310  0.82385582     0.62500
H1592       H  0.83763858  0.18137944  0.77856220     0.13200
H1593       H  0.78219034  0.26567922  0.82194804     0.13200
C1594       C  0.81801776  0.28553122  0.78025631     0.62700
F1595       F  0.82170681  0.14344792  0.81197449    -0.22500
F1596       F  0.77299881  0.15292777  0.81685690    -0.19800
F1597       F  0.80413027  0.16262709  0.85432508    -0.19500
F1598       F  0.82380029  0.28902171  0.75043578    -0.19500
F1599       F  0.84078903  0.29780386  0.79622397    -0.19800
F1600       F  0.79233664  0.30172738  0.78612476    -0.22500
C1601       C  0.83466518  0.21619661  0.64713120    -0.05400
C1602       C  0.82416948  0.22670073  0.67451503     0.00600
C1603       C  0.79339849  0.23199653  0.67858394    -0.08000
C1604       C  0.77388375  0.22368986  0.65632012    -0.05400
C1605       C  0.78412897  0.21296722  0.62899845     0.00600
C1606       C  0.81527500  0.21035379  0.62368368    -0.07900
C1607       C  0.82964016  0.20288986  0.59397904     0.62500
H1608       H  0.85842759  0.21332546  0.64376527     0.13200
H1609       H  0.75017954  0.22565866  0.66022192     0.13200
C1610       C  0.78122250  0.24820988  0.70525227     0.62700
F1611       F  0.85023804  0.22449062  0.58660107    -0.22500
F1612       F  0.80981972  0.20174744  0.57093263    -0.19800
F1613       F  0.84417732  0.17578460  0.59630328    -0.19500
F1614       F  0.79425036  0.27577273  0.70626534    -0.19500
F1615       F  0.78717229  0.23218864  0.73076851    -0.19800
F1616       F  0.75081273  0.25271046  0.70373670    -0.22500
C1617       C  0.75498697  0.08633907  0.57639758    -0.05400
C1618       C  0.76104715  0.08292511  0.54615557     0.00600
C1619       C  0.74938575  0.10430696  0.52596219    -0.08000
C1620       C  0.73712816  0.13096803  0.53709536    -0.05400
C1621       C  0.73516370  0.13660076  0.56775231     0.00600
C1622       C  0.74120395  0.11208602  0.58778937    -0.07900
C1623       C  0.73324187  0.11172311  0.62097421     0.62500
H1624       H  0.76233633  0.06888693  0.59137243     0.13200
H1625       H  0.73075633  0.14799885  0.52141149     0.13200
C1626       C  0.75030859  0.09957347  0.49270573     0.62700
F1627       F  0.74364332  0.08632775  0.63522002    -0.22500
F1628       F  0.70273500  0.11188956  0.62463187    -0.19800
F1629       F  0.74519675  0.13543648  0.63556915    -0.19500
F1630       F  0.74279907  0.07057656  0.48647154    -0.19500
F1631       F  0.77845931  0.10544669  0.48162701    -0.19800
F1632       F  0.73031277  0.11809851  0.47825374    -0.22500
C1633       C  0.92479272  0.12629326  0.71519587    -0.05400
C1634       C  0.90694859  0.11190425  0.69448925     0.00600
C1635       C  0.88137628  0.12677151  0.68352984    -0.08000
C1636       C  0.87540849  0.15601686  0.69261363    -0.05400
C1637       C  0.89358372  0.17088522  0.71263746     0.00600
C1638       C  0.91807002  0.15526435  0.72528064    -0.07900
C1639       C  0.93611137  0.16808472  0.75032705     0.62500
H1640       H  0.94428490  0.11464333  0.72329399     0.13200
H1641       H  0.85659208  0.16782817  0.68341615     0.13200
C1642       C  0.86112456  0.11243271  0.66117323     0.62700
F1643       F  0.95365745  0.19109153  0.74005601    -0.22500
F1644       F  0.95477077  0.14691961  0.76287566    -0.19800
F1645       F  0.91717760  0.17834702  0.77241139    -0.19500
F1646       F  0.84860277  0.08715860  0.67358045    -0.19500
F1647       F  0.87726262  0.10494127  0.63599010    -0.19800
F1648       F  0.83815786  0.13120537  0.65263289    -0.22500
C1649       C  0.74720650  0.32796159  0.91648398    -0.05400
C1650       C  0.77775837  0.32925145  0.92179570     0.00600
C1651       C  0.79446212  0.30254379  0.92431139    -0.08000
C1652       C  0.77996850  0.27546432  0.92055445    -0.05400
C1653       C  0.75107343  0.27444052  0.90905700     0.00600
C1654       C  0.73323176  0.30059584  0.91144854    -0.07900
C1655       C  0.69959815  0.30018865  0.91288217     0.62500
H1656       H  0.73407991  0.34825832  0.91706409     0.13200
H1657       H  0.79254048  0.25493335  0.92248530     0.13200
C1658       C  0.82808157  0.30267351  0.92778863     0.62700
F1659       F  0.69000862  0.31405083  0.93855437    -0.22500
F1660       F  0.68867671  0.27159052  0.91368988    -0.19800
F1661       F  0.68797979  0.31547287  0.88882681    -0.19500
F1662       F  0.83533077  0.31267119  0.95560553    -0.19500
F1663       F  0.84073418  0.32104572  0.90635844    -0.19800
F1664       F  0.84048242  0.27464943  0.92435426    -0.22500
C1665       C  0.91126890  0.33743107  0.73443207    -0.05400
C1666       C  0.93353934  0.33239445  0.75524952     0.00600
C1667       C  0.94732241  0.30382537  0.75629702    -0.08000
C1668       C  0.93480519  0.28056738  0.73997557    -0.05400
C1669       C  0.90952060  0.28449636  0.72196614     0.00600
C1670       C  0.89933540  0.31457922  0.71724362    -0.07900
C1671       C  0.87676679  0.32398699  0.69395491     0.62500
H1672       H  0.90215861  0.35967685  0.73260750     0.13200
H1673       H  0.94312523  0.25828581  0.74379976     0.13200
C1674       C  0.97456043  0.29711539  0.77499576     0.62700
F1675       F  0.87359691  0.35457982  0.69179249    -0.22500
F1676       F  0.84900617  0.31291829  0.70089390    -0.19800
F1677       F  0.88635330  0.31452157  0.66636585    -0.19500
F1678       F  0.96715091  0.29774882  0.80484233    -0.19500
F1679       F  0.99637697  0.31782750  0.76877144    -0.19800
F1680       F  0.98649075  0.26929726  0.76910697    -0.22500
C1681       C  0.84243235  0.37083806  0.20318281    -0.05400
C1682       C  0.84233565  0.40075344  0.19479777     0.00600
C1683       C  0.81694513  0.41841596  0.20141593    -0.08000
C1684       C  0.79152020  0.40451368  0.21355017    -0.05400
C1685       C  0.78995018  0.37343201  0.21812749     0.00600
C1686       C  0.81692620  0.35641316  0.21403314    -0.07900
C1687       C  0.82145831  0.32290292  0.21832593     0.62500
H1688       H  0.86230962  0.35768028  0.19887770     0.13200
H1689       H  0.77243412  0.41827261  0.21799221     0.13200
C1690       C  0.81603158  0.45166284  0.19498056     0.62700
F1691       F  0.83024280  0.31077427  0.19149840    -0.22500
F1692       F  0.79718543  0.30727024  0.22830510    -0.19800
F1693       F  0.84392391  0.31810466  0.23855373    -0.19500
F1694       F  0.81279082  0.45665270  0.16487162    -0.19500
F1695       F  0.84194672  0.46473114  0.20434797    -0.19800
F1696       F  0.79248632  0.46547700  0.20949200    -0.22500
C1697       C  0.72149155  0.24852221  0.16283347    -0.05400
C1698       C  0.71990668  0.26004004  0.13390407     0.00600
C1699       C  0.71476140  0.29077018  0.12929529    -0.08000
C1700       C  0.71468835  0.30939102  0.15395179    -0.05400
C1701       C  0.71890717  0.29814787  0.18281408     0.00600
C1702       C  0.72039016  0.26705151  0.18765121    -0.07900
C1703       C  0.72327165  0.25343445  0.21840830     0.62500
H1704       H  0.72667530  0.22515170  0.16575172     0.13200
H1705       H  0.71330012  0.33324040  0.15043447     0.13200
C1706       C  0.71112020  0.30517553  0.09892437     0.62700
F1707       F  0.72331690  0.22269768  0.21767813    -0.22500
F1708       F  0.69950329  0.26209381  0.23600576    -0.19800
F1709       F  0.74949924  0.26240612  0.23097784    -0.19500
F1710       F  0.70844273  0.28471257  0.07652249    -0.19500
F1711       F  0.73539377  0.32294599  0.09268187    -0.19800
F1712       F  0.68572695  0.32272191  0.09900873    -0.22500
C1713       C  0.81038335  0.22568605  0.03807717    -0.05400
C1714       C  0.80257927  0.22633089  0.06843173     0.00600
C1715       C  0.82570062  0.23324918  0.08905287    -0.08000
C1716       C  0.85306643  0.24366388  0.07786835    -0.05400
C1717       C  0.85899381  0.24660039  0.04751372     0.00600
C1718       C  0.83820140  0.23527653  0.02729420    -0.07900
C1719       C  0.84384456  0.23270813  0.99419450     0.62500
H1720       H  0.79482466  0.21770613  0.02208090     0.13200
H1721       H  0.86945941  0.25153075  0.09332349     0.13200
C1722       C  0.82373289  0.23245788  0.12297108     0.62700
F1723       F  0.83819534  0.20392412  0.98555280    -0.22500
F1724       F  0.87276214  0.23909719  0.98585254    -0.19800
F1725       F  0.82472094  0.25176298  0.97940108    -0.19500
F1726       F  0.79853461  0.21979192  0.13492589    -0.19500
F1727       F  0.82540652  0.26118851  0.13335092    -0.19800
F1728       F  0.84767435  0.21638613  0.13388565    -0.22500
C1729       C  0.62169476  0.37867796  0.23854104    -0.05400
C1730       C  0.62195866  0.39898859  0.26203129     0.00600
C1731       C  0.64994567  0.40972581  0.27183905    -0.08000
C1732       C  0.67616185  0.39785290  0.25940762    -0.05400
C1733       C  0.67590297  0.37608655  0.23749249     0.00600
C1734       C  0.64826690  0.36770947  0.22539527    -0.07900
C1735       C  0.64666884  0.34937049  0.19740769     0.62500
H1736       H  0.60042808  0.37132073  0.23053554     0.13200
H1737       H  0.69745820  0.40437072  0.26800315     0.13200
C1738       C  0.65288426  0.43269639  0.29619129     0.62700
F1739       F  0.61854170  0.35052923  0.18532544    -0.22500
F1740       F  0.65338366  0.31995551  0.20326314    -0.19800
F1741       F  0.66643263  0.36043556  0.17637610    -0.19500
F1742       F  0.63993932  0.42223397  0.32223051    -0.19500
F1743       F  0.63941314  0.45906506  0.28747552    -0.19800
F1744       F  0.68224999  0.43901282  0.30222299    -0.22500
C1745       C  0.70322197  0.27122455  0.31781830    -0.05400
C1746       C  0.72919778  0.25735986  0.32839407     0.00600
C1747       C  0.75706134  0.26702935  0.31711848    -0.08000
C1748       C  0.75744552  0.28873372  0.29428292    -0.05400
C1749       C  0.73136654  0.30344813  0.28461775     0.00600
C1750       C  0.70397039  0.29574758  0.29850045    -0.07900
C1751       C  0.67599932  0.31470845  0.29687220     0.62500
H1752       H  0.68177529  0.26385232  0.32610652     0.13200
H1753       H  0.77848453  0.29415251  0.28380787     0.13200
C1754       C  0.78639835  0.25567113  0.32930187     0.62700
F1755       F  0.66021134  0.31329224  0.32343131    -0.22500
F1756       F  0.65768184  0.30483005  0.27476074    -0.19800
F1757       F  0.68309098  0.34408877  0.29219940    -0.19500
F1758       F  0.79311395  0.22810860  0.31779192    -0.19500
F1759       F  0.78497457  0.25380008  0.35990435    -0.19800
F1760       F  0.80948248  0.27461218  0.32181757    -0.22500
C1761       C  0.64024351  0.20211338  0.40884834    -0.05400
C1762       C  0.66754510  0.21697671  0.41187281     0.00600
C1763       C  0.66764060  0.24221504  0.43051741    -0.08000
C1764       C  0.64037244  0.25675372  0.43607174    -0.05400
C1765       C  0.61313163  0.24540467  0.42624084     0.00600
C1766       C  0.61283674  0.21636819  0.41460176    -0.07900
C1767       C  0.58411179  0.20061054  0.40767858     0.62500
H1768       H  0.64020431  0.17987130  0.40022113     0.13200
H1769       H  0.64046141  0.27796218  0.44704944     0.13200
C1770       C  0.69561704  0.25307213  0.44569850     0.62700
F1771       F  0.58900840  0.17113737  0.40047339    -0.22500
F1772       F  0.57051682  0.21435859  0.38379360    -0.19800
F1773       F  0.56526239  0.20131616  0.43213713    -0.19500
F1774       F  0.71662279  0.26331805  0.42561634    -0.19500
F1775       F  0.70781692  0.23004296  0.46217105    -0.19800
F1776       F  0.68929719  0.27602718  0.46500346    -0.22500
C1777       C  0.81437861  0.14509940  0.39031749    -0.05400
C1778       C  0.83371485  0.16472913  0.40427312     0.00600
C1779       C  0.82330389  0.19356333  0.41159326    -0.08000
C1780       C  0.79369911  0.20156299  0.40473293    -0.05400
C1781       C  0.77461874  0.18195440  0.39040723     0.00600
C1782       C  0.78509669  0.15317936  0.38305989    -0.07900
C1783       C  0.76562931  0.13084990  0.36777193     0.62500
H1784       H  0.82257268  0.12308820  0.38494952     0.13200
H1785       H  0.78519126  0.22338364  0.41033259     0.13200
C1786       C  0.84297703  0.21545160  0.42718591     0.62700
F1787       F  0.77810984  0.10261183  0.36812239    -0.22500
F1788       F  0.76188606  0.13940500  0.33855038    -0.19800
F1789       F  0.73829964  0.12920917  0.38194888    -0.19500
F1790       F  0.86664775  0.22297891  0.40882737    -0.19500
F1791       F  0.85357385  0.20286015  0.45316375    -0.19800
F1792       F  0.82773655  0.24128353  0.43437530    -0.22500
C1793       C  0.71652014  0.13707960  0.17346180    -0.05400
C1794       C  0.73909842  0.11527134  0.17281811     0.00600
C1795       C  0.75579721  0.11233131  0.14588643    -0.08000
C1796       C  0.75357597  0.13518350  0.12448488    -0.05400
C1797       C  0.73344449  0.15923846  0.12719415     0.00600
C1798       C  0.71121998  0.15677055  0.14981507    -0.07900
C1799       C  0.68019874  0.17036658  0.14817215     0.62500
H1800       H  0.70259519  0.13968946  0.19299021     0.13200
H1801       H  0.76772462  0.13376315  0.10493244     0.13200
C1802       C  0.77618281  0.08633753  0.13790924     0.62700
F1803       F  0.66042578  0.15554533  0.16683935    -0.22500
F1804       F  0.66928364  0.16766746  0.11977787    -0.19800
F1805       F  0.68021798  0.19964355  0.15678676    -0.19500
F1806       F  0.76974522  0.06065414  0.15352742    -0.19500
F1807       F  0.80536698  0.09404530  0.14281157    -0.19800
F1808       F  0.77328617  0.07966874  0.10817281    -0.22500
C1809       C  0.69873105  0.11803544  0.29301147    -0.05400
C1810       C  0.72025325  0.12547924  0.27165861     0.00600
C1811       C  0.73272008  0.15421715  0.27125993    -0.08000
C1812       C  0.72293288  0.17456523  0.29254614    -0.05400
C1813       C  0.70522973  0.16578134  0.31694182     0.00600
C1814       C  0.69128134  0.13733203  0.31639507    -0.07900
C1815       C  0.66908903  0.12645308  0.33982131     0.62500
H1816       H  0.68926786  0.09601742  0.29221874     0.13200
H1817       H  0.73151239  0.19694612  0.29180717     0.13200
C1818       C  0.75796069  0.16284284  0.25023443     0.62700
F1819       F  0.64284079  0.14243015  0.33739117    -0.22500
F1820       F  0.68038799  0.12921651  0.36798359    -0.19800
F1821       F  0.66222134  0.09678775  0.33629552    -0.19500
F1822       F  0.74943209  0.15942236  0.22130048    -0.19500
F1823       F  0.78258377  0.14514810  0.25565542    -0.19800
F1824       F  0.76636350  0.19212018  0.25361773    -0.22500
C1825       C  0.82336000  0.05034397  0.23163090    -0.05400
C1826       C  0.79645298  0.04750162  0.24809254     0.00600
C1827       C  0.79788559  0.03194520  0.27611280    -0.08000
C1828       C  0.82607113  0.02440248  0.28751063    -0.05400
C1829       C  0.85275588  0.03046087  0.27224081     0.00600
C1830       C  0.85137180  0.04259091  0.24327934    -0.07900
C1831       C  0.87934714  0.04731961  0.22467511     0.62500
H1832       H  0.82307344  0.05927117  0.20930275     0.13200
H1833       H  0.82758834  0.01378744  0.30913566     0.13200
C1834       C  0.77056201  0.02164318  0.29408305     0.62700
F1835       F  0.87297193  0.05485490  0.19556640    -0.22500
F1836       F  0.89627961  0.02151567  0.22438798    -0.19800
F1837       F  0.89573646  0.07008049  0.23646271    -0.19500
F1838       F  0.75144789  0.04474654  0.30075145    -0.19500
F1839       F  0.77835479  0.00868365  0.32091953    -0.19800
F1840       F  0.75550530  0.00038934  0.27857445    -0.22500
C1841       C  0.65906756  0.17045330  0.02494451    -0.05400
C1842       C  0.63268330  0.18368235  0.03601425     0.00600
C1843       C  0.63493469  0.21065508  0.05181865    -0.08000
C1844       C  0.66347664  0.22143787  0.05845836    -0.05400
C1845       C  0.68970467  0.20639813  0.04990267     0.00600
C1846       C  0.68751579  0.18102815  0.03177804    -0.07900
C1847       C  0.71482898  0.16402409  0.02087232     0.62500
H1848       H  0.65740147  0.15050845  0.01194693     0.13200
H1849       H  0.66555282  0.24088380  0.07217454     0.13200
C1850       C  0.60767724  0.22796990  0.06199392     0.62700
F1851       F  0.70736172  0.13872053  0.00558136    -0.22500
F1852       F  0.73215626  0.15525907  0.04459409    -0.19800
F1853       F  0.73125423  0.18180959  0.00173992    -0.19500
F1854       F  0.59265584  0.21216657  0.08388054    -0.19500
F1855       F  0.58913953  0.23308939  0.03818532    -0.19800
F1856       F  0.61510195  0.25526743  0.07351743    -0.22500
C1857       C  0.65518859  0.02151226  0.17977655    -0.05400
C1858       C  0.62966175  0.02713936  0.19696019     0.00600
C1859       C  0.63261798  0.03949996  0.22543014    -0.08000
C1860       C  0.66135728  0.04708376  0.23515622    -0.05400
C1861       C  0.68671534  0.04342125  0.21684603     0.00600
C1862       C  0.68340785  0.03068484  0.18846225    -0.07900
C1863       C  0.70800480  0.03122982  0.16526160     0.62500
H1864       H  0.65240647  0.01239432  0.15786338     0.13200
H1865       H  0.66404275  0.05740048  0.25652603     0.13200
C1866       C  0.60564794  0.04449678  0.24522025     0.62700
F1867       F  0.70072551  0.01574635  0.14008159    -0.22500
F1868       F  0.73385990  0.01896141  0.17631960    -0.19800
F1869       F  0.71255188  0.06030680  0.15672500    -0.19500
F1870       F  0.58924488  0.01866828  0.24731782    -0.19500
F1871       F  0.58814198  0.06696945  0.23341636    -0.19800
F1872       F  0.61361375  0.05246537  0.27356985    -0.22500
C1873       C  0.74769594  0.53935755  0.15138763    -0.05400
C1874       C  0.75428704  0.56885305  0.15929782     0.00600
C1875       C  0.76663914  0.58807319  0.13649658    -0.08000
C1876       C  0.77319513  0.57628645  0.10849404    -0.05400
C1877       C  0.76964870  0.54635367  0.10230017     0.00600
C1878       C  0.75570260  0.52764248  0.12353166    -0.07900
C1879       C  0.74914049  0.49542376  0.11671188     0.62500
H1880       H  0.73692208  0.52479365  0.16710793     0.13200
H1881       H  0.78367524  0.59039257  0.09175067     0.13200
C1882       C  0.77507081  0.62079158  0.13881271     0.62700
F1883       F  0.73011099  0.48284402  0.13760706    -0.22500
F1884       F  0.77518182  0.47894272  0.11646534    -0.19800
F1885       F  0.73584751  0.49367371  0.08928551    -0.19500
F1886       F  0.80494468  0.62378376  0.13196158    -0.19500
F1887       F  0.77045631  0.63343601  0.16595161    -0.19800
F1888       F  0.75898083  0.63716209  0.11828664    -0.22500
C1889       C  0.73829631  0.55679610  0.29617967    -0.05400
C1890       C  0.72134002  0.55375643  0.27038937     0.00600
C1891       C  0.69392596  0.53849633  0.27240120    -0.08000
C1892       C  0.68460506  0.52707021  0.30021247    -0.05400
C1893       C  0.70095984  0.53091346  0.32637920     0.00600
C1894       C  0.72869218  0.54570838  0.32417870    -0.07900
C1895       C  0.74818278  0.54998899  0.35097087     0.62500
H1896       H  0.75907141  0.56868962  0.29427898     0.13200
H1897       H  0.66360793  0.51559463  0.30176327     0.13200
C1898       C  0.67370503  0.53509095  0.24585885     0.62700
F1899       F  0.77560007  0.56165563  0.34311690    -0.22500
F1900       F  0.75308688  0.52295553  0.36506847    -0.19800
F1901       F  0.73445850  0.56940814  0.37042954    -0.19500
F1902       F  0.68601333  0.51496126  0.22627062    -0.19500
F1903       F  0.66965984  0.56212877  0.23155083    -0.19800
F1904       F  0.64588982  0.52475754  0.25422258    -0.22500
C1905       C  0.66996944  0.68516904  0.21151773    -0.05400
C1906       C  0.64736163  0.67750260  0.23171825     0.00600
C1907       C  0.65004150  0.65131007  0.24915094    -0.08000
C1908       C  0.67525476  0.63308534  0.24500133    -0.05400
C1909       C  0.69727417  0.64006452  0.22379009     0.00600
C1910       C  0.69522855  0.66719495  0.20747423    -0.07900
C1911       C  0.71944937  0.67782445  0.18627386     0.62500
H1912       H  0.66752233  0.70557029  0.19872608     0.13200
H1913       H  0.67751374  0.61265053  0.25770612     0.13200
C1914       C  0.62585088  0.64188846  0.27090508     0.62700
F1915       F  0.71859587  0.66187950  0.16037236    -0.22500
F1916       F  0.74691665  0.67454615  0.19930085    -0.19800
F1917       F  0.71593745  0.70758238  0.17882098    -0.19500
F1918       F  0.63167228  0.61424297  0.28343024    -0.19500
F1919       F  0.59904807  0.64040289  0.25637723    -0.19800
F1920       F  0.62357376  0.66209069  0.29362505    -0.22500
C1921       C  0.55392662  0.67844204  0.29121624    -0.05400
C1922       C  0.56959013  0.70501031  0.29318622     0.00600
C1923       C  0.57485658  0.71723018  0.32140291    -0.08000
C1924       C  0.56720016  0.70046290  0.34693463    -0.05400
C1925       C  0.55327749  0.67273938  0.34504305     0.00600
C1926       C  0.54553774  0.66191230  0.31651890    -0.07900
C1927       C  0.52975802  0.63251197  0.31212500     0.62500
H1928       H  0.54943297  0.67004879  0.26932948     0.13200
H1929       H  0.57196080  0.70901155  0.36869914     0.13200
C1930       C  0.58633537  0.74861780  0.32459586     0.62700
F1931       F  0.52571026  0.62634215  0.28241720    -0.22500
F1932       F  0.50196923  0.63340239  0.32544224    -0.19800
F1933       F  0.54632489  0.60951422  0.32430243    -0.19500
F1934       F  0.56827610  0.76794766  0.30883196    -0.19500
F1935       F  0.61514818  0.75080347  0.31405457    -0.19800
F1936       F  0.58604025  0.75747666  0.35389227    -0.22500
C1937       C  0.84765858  0.63424250  0.24794676    -0.05400
C1938       C  0.84065866  0.66442479  0.25092839     0.00600
C1939       C  0.81072403  0.67327282  0.25543472    -0.08000
C1940       C  0.78836200  0.65215991  0.25165039    -0.05400
C1941       C  0.79532576  0.62243637  0.24555508     0.00600
C1942       C  0.82537185  0.61280229  0.24652560    -0.07900
C1943       C  0.83501657  0.58045020  0.24665410     0.62500
H1944       H  0.87079882  0.62735155  0.24664259     0.13200
H1945       H  0.76530193  0.65928727  0.25190228     0.13200
C1946       C  0.80169214  0.70472982  0.26312300     0.62700
F1947       F  0.85088287  0.57444290  0.22092139    -0.22500
F1948       F  0.81132971  0.56116337  0.24905332    -0.19800
F1949       F  0.85319858  0.57514940  0.27072172    -0.19500
F1950       F  0.79729241  0.72088869  0.23729512    -0.19500
F1951       F  0.82299917  0.71829995  0.27998899    -0.19800
F1952       F  0.77556409  0.70473508  0.27966003    -0.22500
C1953       C  0.93308414  0.70056425  0.13332759    -0.05400
C1954       C  0.91637256  0.67766915  0.12116600     0.00600
C1955       C  0.89643580  0.66155419  0.13975334    -0.08000
C1956       C  0.89308522  0.66973197  0.16969639    -0.05400
C1957       C  0.90996737  0.69244779  0.18205558     0.00600
C1958       C  0.93028574  0.70837676  0.16348832    -0.07900
C1959       C  0.94909776  0.73347269  0.17501261     0.62500
H1960       H  0.94911352  0.71174517  0.11907152     0.13200
H1961       H  0.87761465  0.65787231  0.18402706     0.13200
C1962       C  0.88012498  0.63463212  0.12844088     0.62700
F1963       F  0.96265003  0.74931134  0.15213654    -0.22500
F1964       F  0.97118686  0.72196792  0.19286498    -0.19800
F1965       F  0.93170967  0.75319094  0.19096356    -0.19500
F1966       F  0.90037864  0.61406042  0.11756572    -0.19500
F1967       F  0.86107195  0.64322073  0.10603817    -0.19800
F1968       F  0.86358867  0.62081440  0.15064233    -0.22500
C1969       C  0.81103584  0.78665092  0.20888175    -0.05400
C1970       C  0.80418482  0.80470403  0.23323026     0.00600
C1971       C  0.82334569  0.80395405  0.25791379    -0.08000
C1972       C  0.84561220  0.78194598  0.25902932    -0.05400
C1973       C  0.85243007  0.76349749  0.23471381     0.00600
C1974       C  0.83631920  0.76828475  0.20808385    -0.07900
C1975       C  0.84537444  0.75674955  0.17780067     0.62500
H1976       H  0.79726516  0.78810447  0.18934680     0.13200
H1977       H  0.85729014  0.77897999  0.27960814     0.13200
C1978       C  0.82221279  0.82717872  0.28200767     0.62700
F1979       F  0.84250236  0.77923499  0.15675274    -0.22500
F1980       F  0.82704276  0.73365115  0.17008577    -0.19800
F1981       F  0.87459735  0.74756995  0.17680933    -0.19500
F1982       F  0.79733846  0.82348629  0.29970651    -0.19500
F1983       F  0.82207188  0.85513997  0.26905744    -0.19800
F1984       F  0.84673897  0.82538548  0.30023704    -0.22500
C1985       C  0.67212530  0.81566609  0.25029613    -0.05400
C1986       C  0.69977272  0.80163578  0.24610671     0.00600
C1987       C  0.70173067  0.77031339  0.24749517    -0.08000
C1988       C  0.67529576  0.75408664  0.25099568    -0.05400
C1989       C  0.64733478  0.76822465  0.25198434     0.00600
C1990       C  0.64590980  0.79955986  0.25398287    -0.07900
C1991       C  0.61780575  0.81727321  0.26022959     0.62500
H1992       H  0.67080777  0.83973788  0.24941736     0.13200
H1993       H  0.67620746  0.73014498  0.25073925     0.13200
C1994       C  0.73107798  0.75406312  0.24320044     0.62700
F1995       F  0.62191334  0.83414124  0.28528774    -0.22500
F1996       F  0.59338196  0.79962152  0.26534639    -0.19800
F1997       F  0.61202729  0.83613921  0.23651295    -0.19500
F1998       F  0.75035647  0.76170027  0.26538766    -0.19500
F1999       F  0.74343963  0.76157771  0.21593373    -0.19800
F2000       F  0.72759891  0.72353206  0.24422525    -0.22500
C2001       C  0.54238716  0.77703507  0.15306838    -0.05400
C2002       C  0.54681196  0.75944272  0.12796781     0.00600
C2003       C  0.55552755  0.72948290  0.13181396    -0.08000
C2004       C  0.56344192  0.71954216  0.16048699    -0.05400
C2005       C  0.56412203  0.73890251  0.18505501     0.00600
C2006       C  0.55001488  0.76730815  0.18163631    -0.07900
C2007       C  0.54329520  0.78949654  0.20610509     0.62500
H2008       H  0.53387613  0.79951413  0.15024264     0.13200
H2009       H  0.56964730  0.69654206  0.16338901     0.13200
C2010       C  0.55591482  0.70806573  0.10605159     0.62700
F2011       F  0.56089495  0.81426854  0.20183378    -0.22500
F2012       F  0.54764334  0.77863533  0.23434101    -0.19800
F2013       F  0.51378427  0.79825266  0.20451344    -0.19500
F2014       F  0.57783875  0.71595496  0.08578956    -0.19500
F2015       F  0.52861675  0.70874937  0.09225536    -0.19800
F2016       F  0.56147084  0.67912077  0.11529531    -0.22500
C2017       C  0.72357626  0.86640895  0.11957812    -0.05400
C2018       C  0.71181264  0.89519372  0.11900767     0.00600
C2019       C  0.71680305  0.91395215  0.14339118    -0.08000
C2020       C  0.73050341  0.90217383  0.16888547    -0.05400
C2021       C  0.73940849  0.87219597  0.17120108     0.00600
C2022       C  0.73762446  0.85430607  0.14489357    -0.07900
C2023       C  0.75076733  0.82289336  0.14199468     0.62500
H2024       H  0.72069152  0.85303401  0.10004716     0.13200
H2025       H  0.73244240  0.91643288  0.18767350     0.13200
C2026       C  0.70750843  0.94642443  0.14287666     0.62700
F2027       F  0.78138664  0.82438839  0.14066970    -0.22500
F2028       F  0.74176774  0.80930836  0.11625018    -0.19800
F2029       F  0.74230236  0.80433220  0.16506155    -0.19500
F2030       F  0.67702228  0.94896348  0.14634272    -0.19500
F2031       F  0.71623381  0.95952792  0.11626996    -0.19800
F2032       F  0.72056128  0.96185674  0.16554698    -0.22500
C2033       C  0.76345641  0.87393191  0.33941214    -0.05400
C2034       C  0.78726430  0.89393226  0.33798963     0.00600
C2035       C  0.79378252  0.90830990  0.31026374    -0.08000
C2036       C  0.77870301  0.89937821  0.28473582    -0.05400
C2037       C  0.75714712  0.87707636  0.28568228     0.00600
C2038       C  0.74759326  0.86607947  0.31389060    -0.07900
C2039       C  0.72039849  0.84684027  0.31804290     0.62500
H2040       H  0.75738271  0.86396415  0.36061600     0.13200
H2041       H  0.78560592  0.90814348  0.26330217     0.13200
C2042       C  0.81702247  0.93252984  0.30684913     0.62700
F2043       F  0.70490384  0.85500223  0.34342678    -0.22500
F2044       F  0.72874473  0.81732886  0.32085011    -0.19800
F2045       F  0.70130439  0.85031817  0.29456755    -0.19500
F2046       F  0.84521096  0.92037365  0.30946496    -0.19500
F2047       F  0.81248519  0.95389295  0.32826136    -0.19800
F2048       F  0.81559456  0.94666214  0.27942977    -0.22500
C2049       C  0.96096228  0.74674996  0.32151821    -0.05400
C2050       C  0.94917295  0.73496024  0.34819891     0.00600
C2051       C  0.93462124  0.70730028  0.34738638    -0.08000
C2052       C  0.92832728  0.69521814  0.31948695    -0.05400
C2053       C  0.93340936  0.71125558  0.29267970     0.00600
C2054       C  0.95425680  0.73482806  0.29372482    -0.07900
C2055       C  0.97026302  0.74694021  0.26626803     0.62500
H2056       H  0.97450598  0.76647409  0.32236556     0.13200
H2057       H  0.91793467  0.67382801  0.31913890     0.13200
C2058       C  0.92527055  0.69077544  0.37549387     0.62700
F2059       F  0.95054283  0.75903667  0.24626762    -0.22500
F2060       F  0.98621055  0.72420832  0.25306626    -0.19800
F2061       F  0.99027571  0.76894171  0.27318339    -0.19500
F2062       F  0.90191815  0.70564175  0.38910253    -0.19500
F2063       F  0.94896303  0.68875876  0.39468526    -0.19800
F2064       F  0.91599862  0.66218782  0.36968264    -0.22500
loop_ 
_geom_bond_atom_site_label_1 
_geom_bond_atom_site_label_2 
_geom_bond_distance 
_geom_bond_site_symmetry_2 
_ccdc_geom_bond_type 
O1            C4   1.263       .  A
O1           Cd6   2.402       .  S
C2           O11   1.264       .  A
C2            O7   1.263       .  A
C2          C663   1.457   1_655  S
O3            C9   1.260   1_455  A
O3           Cd6   2.424   1_455  S
C4           O12   1.271       .  A
C4           C17   1.469       .  S
C5           O10   1.258       .  A
C5            O8   1.271       .  A
C5         C2050   1.491       .  S
Cd6          O13   2.539       .  S
Cd6          O12   2.525       .  S
Cd6          O11   2.438       .  S
Cd6           O7   2.463       .  S
Cd6          O10   2.402       .  S
Cd6           O8   2.537       .  S
C9           O13   1.266       .  A
C9          C892   1.470   1_655  S
O14          C17   1.263       .  A
O14         Cd19   2.404       .  S
C15          O24   1.263       .  A
C15          O20   1.262       .  A
C15         C205   1.454       .  S
O16          C22   1.273       .  A
O16         Cd19   2.563       .  S
C17          O25   1.271       .  A
C18          O23   1.264       .  A
C18          O21   1.265       .  A
C18         C348   1.477       .  S
Cd19         O26   2.413       .  S
Cd19         O25   2.527       .  S
Cd19         O24   2.449       .  S
Cd19         O20   2.456       .  S
Cd19         O23   2.479       .  S
Cd19         O21   2.515       .  S
C22          O26   1.257       .  A
C22        C2034   1.499       .  S
O27          C30   1.264       .  A
O27         Cd32   2.414       .  S
C28          O37   1.264       .  A
C28          O33   1.262       .  A
C28         C156   1.461       .  S
O29          C35   1.271       .  A
O29         Cd32   2.533       .  S
C30          O38   1.269       .  A
C30          C43   1.469       .  S
C31          O36   1.263   1_556  A
C31          O34   1.265       .  A
C31         C423   1.476       .  S
Cd32         O39   2.419       .  S
Cd32         O38   2.521       .  S
Cd32         O37   2.465       .  S
Cd32         O33   2.460       .  S
Cd32         O36   2.483       .  S
Cd32         O34   2.511   1_554  S
C35          O39   1.258       .  A
C35        C2018   1.488       .  S
O40          C43   1.263       .  A
O40         Cd45   2.406       .  S
C41          O50   1.266       .  A
C41          O46   1.261       .  A
C41         C737   1.454       .  S
O42          C48   1.262   1_554  A
O42         Cd45   2.473       .  S
C43          O51   1.271       .  A
C44          O49   1.271       .  A
C44          O47   1.261       .  A
C44        C2002   1.482       .  S
Cd45         O52   2.468   1_554  S
Cd45         O51   2.521       .  S
Cd45         O50   2.463       .  S
Cd45         O46   2.432       .  S
Cd45         O49   2.512       .  S
Cd45         O47   2.406       .  S
C48          O52   1.263       .  A
C48         C778   1.464       .  S
C53          C54   1.562       .  S
C53          C59   1.524       .  S
C53          C57   1.528       .  S
C53        C2021   1.549       .  S
C54          H61   1.081       .  S
C54          C55   1.381       .  D
C55          C56   1.545       .  S
C55        C2037   1.504       .  S
C56          C60   1.536       .  S
C56          C58   1.545       .  S
C56          H62   1.101       .  S
C57          H63   1.082       .  S
C57          C58   1.365       .  D
C58        C1970   1.491       .  S
C59          H64   1.088       .  S
C59          C60   1.354       .  D
C60        C1986   1.479       .  S
C65          C66   1.540       .  S
C65          C71   1.543       .  S
C65          C69   1.547       .  S
C65        C2053   1.553       .  S
C66          H73   1.084       .  S
C66          C67   1.372       .  D
C67          C68   1.541       .  S
C67        C1973   1.506       .  S
C68          C72   1.546       .  S
C68          C70   1.528       .  S
C68          H74   1.104       .  S
C69          H75   1.080       .  S
C69          C70   1.351       .  D
C70        C1938   1.475       .  S
C71          H76   1.076       .  S
C71          C72   1.374       .  D
C72        C1957   1.498       .  S
C77          C78   1.541       .  S
C77          C83   1.537       .  S
C77          C81   1.550       .  S
C77        C2005   1.545       .  S
C78          H85   1.086       .  S
C78          C79   1.365       .  D
C79          C80   1.534       .  S
C79        C1989   1.484       .  S
C80          C84   1.538       .  S
C80          C82   1.531       .  S
C80          H86   1.108       .  S
C81          H87   1.083       .  S
C81          C82   1.364       .  D
C82        C1906   1.480       .  S
C83          H88   1.086       .  S
C83          C84   1.369       .  D
C84        C1922   1.484       .  S
O89          C92   1.263       .  A
O89         Cd94   2.423       .  S
C90          O99   1.265       .  A
C90          O95   1.261       .  A
C90         C688   1.458       .  S
O91          C97   1.264       .  A
O91         Cd94   2.522       .  S
C92         O100   1.270       .  A
C92         C105   1.472       .  S
C93          O98   1.273       .  A
C93          O96   1.257       .  A
C93        C1925   1.491       .  S
Cd94        O101   2.475       .  S
Cd94        O100   2.526       .  S
Cd94         O99   2.469       .  S
Cd94         O95   2.447       .  S
Cd94         O98   2.526       .  S
Cd94         O96   2.400       .  S
C97         O101   1.264       .  A
C97         C866   1.476       .  S
O102        C105   1.263       .  A
O102       Cd107   2.428       .  S
C103        O112   1.264       .  A
C103        O108   1.263       .  A
C103        C232   1.461       .  S
O104        C110   1.271       .  A
O104       Cd107   2.561       .  S
C105        O113   1.269       .  A
C106        O111   1.264       .  A
C106        O109   1.265       .  A
C106        C414   1.482       .  S
Cd107       O114   2.439       .  S
Cd107       O113   2.528       .  S
Cd107       O112   2.465       .  S
Cd107       O108   2.461       .  S
Cd107       O111   2.500       .  S
Cd107       O109   2.519       .  S
C110        O114   1.261       .  A
C110       C1893   1.505       .  S
O115        C118   1.265       .  A
O115       Cd120   2.391       .  S
C116        O125   1.265       .  A
C116        O121   1.259       .  A
C116        C625   1.456       .  S
O117        C123   1.264   1_554  A
O117       Cd120   2.523       .  S
C118        O126   1.274       .  A
C118        C129   1.469       .  S
C119        O124   1.260       .  A
C119        O122   1.270       .  A
C119       C1954   1.484       .  S
Cd120       O127   2.494   1_554  S
Cd120       O126   2.521       .  S
Cd120       O125   2.465       .  S
Cd120       O121   2.442       .  S
Cd120       O124   2.444       .  S
Cd120       O122   2.511       .  S
C123        O127   1.262       .  A
C123        C791   1.478       .  S
O128        C131   1.262       .  A
O128       Cd133   2.436       .  S
C129        O138   1.270       .  A
C129        O134   1.263       .  A
O130        C136   1.265   1_554  A
O130       Cd133   2.494       .  S
C131        O139   1.265       .  A
C131        C268   1.458       .  S
C132        O137   1.271       .  A
C132        O135   1.259       .  A
C132       C1877   1.476       .  S
Cd133       O140   2.447   1_554  S
Cd133       O139   2.472       .  S
Cd133       O138   2.529       .  S
Cd133       O134   2.403       .  S
Cd133       O137   2.490       .  S
Cd133       O135   2.407       .  S
C136        O140   1.263       .  A
C136        C326   1.466       .  S
C141        C142   1.561       .  S
C141        C147   1.530       .  S
C141        C145   1.533       .  S
C141       C1874   1.543       .  S
C142        H149   1.078       .  S
C142        C143   1.377       .  D
C143        C144   1.541       .  S
C143       C1890   1.499       .  S
C144        C148   1.537       .  S
C144        C146   1.538       .  S
C144        H150   1.111       .  S
C145        H151   1.085       .  S
C145        C146   1.360       .  D
C146       C1909   1.484       .  S
C147        H152   1.087       .  S
C147        C148   1.361       .  D
C148       C1941   1.479       .  S
O153        C156   1.262   1_545  A
O153       Cd158   2.456       .  S
C154        O163   1.271       .  A
C154        O159   1.264       .  A
C154        C169   1.473       .  S
O155        C161   1.263       .  A
O155       Cd158   2.489   1_565  S
C156        O164   1.265       .  A
C157        O162   1.271       .  A
C157        O160   1.261   1_545  A
C157       C1858   1.484       .  S
Cd158       O165   2.501       .  S
Cd158       O164   2.470   1_545  S
Cd158       O163   2.543       .  S
Cd158       O159   2.407       .  S
Cd158       O162   2.525       .  S
Cd158       O160   2.410   1_545  S
C161        O165   1.263   1_565  A
C161        C744   1.474       .  S
O166        C169   1.262       .  A
O166       Cd171   2.401       .  S
C167        O176   1.266       .  A
C167        O172   1.261   1_556  A
C167        C422   1.455       .  S
O168        C174   1.264       .  A
O168       Cd171   2.498   1_556  S
C169        O177   1.272       .  A
C170        O175   1.272       .  A
C170        O173   1.260       .  A
C170       C1842   1.504       .  S
Cd171       O178   2.515       .  S
Cd171       O177   2.547       .  S
Cd171       O176   2.464   1_554  S
Cd171       O172   2.436       .  S
Cd171       O175   2.554       .  S
Cd171       O173   2.429       .  S
C174        O178   1.264   1_556  A
C174        C499   1.479       .  S
C179        C180   1.550       .  S
C179        C185   1.529       .  S
C179        C183   1.558       .  S
C179       C1826   1.557       .  S
C180        H187   1.082       .  S
C180        C181   1.368       .  D
C181        C182   1.525       .  S
C181       C1861   1.494       .  S
C182        C186   1.534       .  S
C182        C184   1.546       .  S
C182        H188   1.106       .  S
C183        H189   1.081       .  S
C183        C184   1.373       .  D
C184       C1794   1.507       .  S
C185        H190   1.087       .  S
C185        C186   1.356       .  D
C186       C1810   1.475       .  S
O191        C194   1.262       .  A
O191       Cd196   2.448       .  S
C192        O201   1.271       .  A
C192        O197   1.264       .  A
C192        C207   1.471       .  S
O193        C199   1.272       .  A
O193       Cd196   2.558       .  S
C194        O202   1.264       .  A
C194        C347   1.456       .  S
C195        O200   1.263       .  A
C195        O198   1.265       .  A
C195        C461   1.475       .  S
Cd196       O203   2.413       .  S
Cd196       O202   2.455       .  S
Cd196       O201   2.517       .  S
Cd196       O197   2.420       .  S
Cd196       O200   2.473       .  S
Cd196       O198   2.517       .  S
C199        O203   1.259       .  A
C199       C1778   1.489       .  S
O204        C207   1.263       .  A
O204       Cd209   2.427       .  S
C205        O214   1.264       .  A
C205        O210   1.262       .  A
O206        C212   1.271       .  A
O206       Cd209   2.520       .  S
C207        O215   1.269       .  A
C208        O213   1.265       .  A
C208        O211   1.265       .  A
C208        C664   1.478   1_655  S
Cd209       O216   2.436       .  S
Cd209       O215   2.522       .  S
Cd209       O214   2.457   1_545  S
Cd209       O210   2.437   1_545  S
Cd209       O213   2.508   1_545  S
Cd209       O211   2.484   1_545  S
C212        O216   1.262       .  A
C212       C1829   1.494       .  S
C217        C218   1.531       .  S
C217        C223   1.540       .  S
C217        C221   1.551       .  S
C217       C1762   1.544       .  S
C218        H225   1.087       .  S
C218        C219   1.366       .  D
C219        C220   1.541       .  S
C219       C1746   1.496       .  S
C220        C224   1.536       .  S
C220        C222   1.543       .  S
C220        H226   1.102       .  S
C221        H227   1.073       .  S
C221        C222   1.360       .  D
C222       C1813   1.500       .  S
C223        H228   1.084       .  S
C223        C224   1.369       .  D
C224       C1781   1.491       .  S
O229        C232   1.262       .  A
O229       Cd234   2.461       .  S
C230        O239   1.271       .  A
C230        O235   1.264       .  A
C230        C243   1.470       .  S
O231        C237   1.264       .  A
O231       Cd234   2.503       .  S
C232        O240   1.264       .  A
C233        O238   1.273       .  A
C233        O236   1.257       .  A
C233       C1730   1.498       .  S
Cd234       O241   2.492       .  S
Cd234       O240   2.471       .  S
Cd234       O239   2.529       .  S
Cd234       O235   2.400       .  S
Cd234       O238   2.551       .  S
Cd234       O236   2.400       .  S
C237        O241   1.262       .  A
C237        C689   1.475       .  S
O242        C245   1.261       .  A
O242       Cd247   2.433       .  S
C243        O252   1.272       .  A
C243        O248   1.262       .  A
O244        C250   1.274       .  A
O244       Cd247   2.520       .  S
C245        O253   1.265       .  A
C245        C407   1.457       .  S
C246        O251   1.263       .  A
C246        O249   1.263       .  A
C246        C554   1.468       .  S
Cd247       O254   2.405       .  S
Cd247       O253   2.469       .  S
Cd247       O252   2.534       .  S
Cd247       O248   2.398       .  S
Cd247       O251   2.476       .  S
Cd247       O249   2.488       .  S
C250        O254   1.260       .  A
C250       C1765   1.491       .  S
C255        C256   1.525       .  S
C255        C261   1.560       .  S
C255        C259   1.532       .  S
C255       C1714   1.543       .  S
C256        H263   1.087       .  S
C256        C257   1.353       .  D
C257        C258   1.533       .  S
C257       C1698   1.472       .  S
C258        C262   1.533       .  S
C258        C260   1.544       .  S
C258        H264   1.089       .  S
C259        H265   1.084       .  S
C259        C260   1.376       .  D
C260       C1797   1.515       .  S
C261        H266   1.079       .  S
C261        C262   1.376       .  D
C262       C1845   1.496       .  S
O267        C270   1.264       .  A
O267       Cd272   2.430       .  S
C268        O277   1.263       .  A
C268        O273   1.263       .  A
O269        C275   1.271       .  A
O269       Cd272   2.481       .  S
C270        O278   1.268       .  A
C270        C283   1.469       .  S
C271        O276   1.262       .  A
C271        O274   1.264       .  A
C271        C626   1.465       .  S
Cd272       O279   2.438       .  S
Cd272       O278   2.506       .  S
Cd272       O277   2.446       .  S
Cd272       O273   2.469       .  S
Cd272       O276   2.454       .  S
Cd272       O274   2.492       .  S
C275        O279   1.260       .  A
C275       C1682   1.485       .  S
O280        C283   1.264       .  A
O280       Cd285   2.426       .  S
C281        O290   1.264       .  A
C281        O286   1.261   1_556  A
C281        C319   1.457       .  S
O282        C288   1.263       .  A
O282       Cd285   2.481   1_556  S
C283        O291   1.269       .  A
C284        O289   1.262       .  A
C284        O287   1.271       .  A
C284       C1717   1.484       .  S
Cd285       O292   2.502       .  S
Cd285       O291   2.507       .  S
Cd285       O290   2.457   1_554  S
Cd285       O286   2.455       .  S
Cd285       O289   2.441       .  S
Cd285       O287   2.500       .  S
C288        O292   1.264   1_556  A
C288        C579   1.472   1_655  S
C293        C294   1.555       .  S
C293        C299   1.529       .  S
C293        C297   1.534       .  S
C293       C1685   1.543       .  S
C294        H301   1.081       .  S
C294        C295   1.375       .  D
C295        C296   1.543       .  S
C295       C1733   1.498       .  S
C296        C300   1.533       .  S
C296        C298   1.548       .  S
C296        H302   1.093       .  S
C297        H303   1.086       .  S
C297        C298   1.368       .  D
C298       C1749   1.505       .  S
C299        H304   1.087       .  S
C299        C300   1.357       .  D
C300       C1701   1.480       .  S
O305        C308   1.262       .  A
O305       Cd310   2.401       .  S
C306        O315   1.264       .  A
C306        O311   1.263       .  A
C306        C574   1.453   1_655  S
O307        C313   1.272       .  A
O307       Cd310   2.508       .  S
C308        O316   1.270       .  A
C308        C321   1.469       .  S
C309        O314   1.262       .  A
C309        O312   1.266       .  A
C309        C804   1.476   1_655  S
Cd310       O317   2.458       .  S
Cd310       O316   2.543       .  S
Cd310       O315   2.440       .  S
Cd310       O311   2.442       .  S
Cd310       O314   2.453       .  S
Cd310       O312   2.535       .  S
C313        O317   1.258       .  A
C313       C1666   1.501       .  S
O318        C321   1.263       .  A
O318       Cd323   2.384       .  S
C319        O328   1.266       .  A
C319        O324   1.261       .  A
O320        C326   1.264       .  A
O320       Cd323   2.508       .  S
C321        O329   1.272       .  A
C322        O327   1.260       .  A
C322        O325   1.271       .  A
C322       C1650   1.473       .  S
Cd323       O330   2.449       .  S
Cd323       O329   2.532       .  S
Cd323       O328   2.472       .  S
Cd323       O324   2.440       .  S
Cd323       O327   2.407       .  S
Cd323       O325   2.504       .  S
C326        O330   1.260       .  A
O331        C334   1.261       .  A
O331       Cd336   2.442       .  S
C332        O341   1.272       .  A
C332        O337   1.263       .  A
C332        C345   1.469       .  S
O333        C339   1.264   1_545  A
O333       Cd336   2.500       .  S
C334        O342   1.266       .  A
C334        C458   1.456       .  S
C335        O340   1.262       .  A
C335        O338   1.269       .  A
C335       C1634   1.488       .  S
Cd336       O343   2.490   1_545  S
Cd336       O342   2.465       .  S
Cd336       O341   2.525       .  S
Cd336       O337   2.396       .  S
Cd336       O340   2.468       .  S
Cd336       O338   2.497       .  S
C339        O343   1.262       .  A
C339        C883   1.473       .  S
O344        C347   1.262       .  A
O344       Cd349   2.447       .  S
C345        O354   1.269       .  A
C345        O350   1.262       .  A
O346        C352   1.271       .  A
O346       Cd349   2.502       .  S
C347        O355   1.264       .  A
C348        O353   1.263       .  A
C348        O351   1.266       .  A
Cd349       O356   2.454       .  S
Cd349       O355   2.457       .  S
Cd349       O354   2.534       .  S
Cd349       O350   2.406       .  S
Cd349       O353   2.480   1_545  S
Cd349       O351   2.516   1_545  S
C352        O356   1.261       .  A
C352       C1618   1.494       .  S
C357        C358   1.549       .  S
C357        C363   1.533       .  S
C357        C361   1.544       .  S
C357       C1669   1.554       .  S
C358        H365   1.082       .  S
C358        C359   1.378       .  D
C359        C360   1.551       .  S
C359       C1637   1.500       .  S
C360        C364   1.535       .  S
C360        C362   1.535       .  S
C360        H366   1.111       .  S
C361        H367   1.075       .  S
C361        C362   1.362       .  D
C362       C1602   1.485       .  S
C363        H368   1.083       .  S
C363        C364   1.357       .  D
C364       C1586   1.494       .  S
C369        C370   1.536       .  S
C369        C375   1.525       .  S
C369        C373   1.553       .  S
C369       C1653   1.545       .  S
C370        H377   1.087       .  S
C370        C371   1.360       .  D
C371        C372   1.551       .  S
C371       C1589   1.500       .  S
C372        C376   1.554       .  S
C372        C374   1.538       .  S
C372        H378   1.106       .  S
C373        H379   1.080       .  S
C373        C374   1.368       .  D
C374       C1554   1.498       .  S
C375        H380   1.085       .  S
C375        C376   1.369       .  D
C376       C1570   1.492       .  S
C381        C382   1.536       .  S
C381        C387   1.566       .  S
C381        C385   1.532       .  S
C381       C1621   1.551       .  S
C382        H389   1.087       .  S
C382        C383   1.356       .  D
C383        C384   1.534       .  S
C383       C1605   1.483       .  S
C384        C388   1.535       .  S
C384        C386   1.533       .  S
C384        H390   1.104       .  S
C385        H391   1.081       .  S
C385        C386   1.363       .  D
C386       C1522   1.483       .  S
C387        H392   1.082       .  S
C387        C388   1.382       .  D
C388       C1538   1.499       .  S
O393        C396   1.264       .  A
O393       Cd398   2.420       .  S
C394        O403   1.265       .  A
C394        O399   1.262       .  A
C394        C549   1.464       .  S
O395        C401   1.271       .  A
O395       Cd398   2.543       .  S
C396        O404   1.270       .  A
C396        C409   1.470       .  S
C397        O402   1.263       .  A
C397        O400   1.265       .  A
C397        C853   1.475       .  S
Cd398       O405   2.395       .  S
Cd398       O404   2.517       .  S
Cd398       O403   2.472       .  S
Cd398       O399   2.473       .  S
Cd398       O402   2.493       .  S
Cd398       O400   2.501       .  S
C401        O405   1.260       .  A
C401       C1506   1.491       .  S
O406        C409   1.264       .  A
O406       Cd411   2.418       .  S
C407        O416   1.264       .  A
C407        O412   1.262       .  A
O408        C414   1.264       .  A
O408       Cd411   2.500       .  S
C409        O417   1.270       .  A
C410        O415   1.273       .  A
C410        O413   1.258       .  A
C410       C1541   1.502       .  S
Cd411       O418   2.522       .  S
Cd411       O417   2.520       .  S
Cd411       O416   2.450       .  S
Cd411       O412   2.464       .  S
Cd411       O415   2.570       .  S
Cd411       O413   2.433       .  S
C414        O418   1.265       .  A
O419        C422   1.262       .  A
O419       Cd424   2.448       .  S
C420        O429   1.271       .  A
C420        O425   1.263       .  A
C420        C435   1.468       .  S
O421        C427   1.271       .  A
O421       Cd424   2.538       .  S
C422        O430   1.265       .  A
C423        O428   1.263   1_565  A
C423        O426   1.264       .  A
Cd424       O431   2.419       .  S
Cd424       O430   2.452       .  S
Cd424       O429   2.525       .  S
Cd424       O425   2.397       .  S
Cd424       O428   2.487       .  S
Cd424       O426   2.506   1_545  S
C427        O431   1.260       .  A
C427       C1573   1.498       .  S
O432        C435   1.265       .  A
O432       Cd437   2.395       .  S
C433        O442   1.264       .  A
C433        O438   1.261       .  A
C433        C496   1.460       .  S
O434        C440   1.271       .  A
O434       Cd437   2.513       .  S
C435        O443   1.272       .  A
C436        O441   1.263       .  A
C436        O439   1.262       .  A
C436        C765   1.471       .  S
Cd437       O444   2.409       .  S
Cd437       O443   2.522       .  S
Cd437       O442   2.469       .  S
Cd437       O438   2.457       .  S
Cd437       O441   2.500   1_545  S
Cd437       O439   2.480   1_545  S
C440        O444   1.258       .  A
C440       C1490   1.479       .  S
C445        C446   1.539       .  S
C445        C451   1.548       .  S
C445        C449   1.540       .  S
C445       C1493   1.540       .  S
C446        H453   1.082       .  S
C446        C447   1.371       .  D
C447        C448   1.534       .  S
C447       C1509   1.491       .  S
C448        C452   1.532       .  S
C448        C450   1.528       .  S
C448        H454   1.112       .  S
C449        H455   1.079       .  S
C449        C450   1.360       .  D
C450       C1525   1.474       .  S
C451        H456   1.086       .  S
C451        C452   1.365       .  D
C452       C1557   1.479       .  S
O457        C460   1.263       .  A
O457       Cd462   2.390       .  S
C458        O467   1.265       .  A
C458        O463   1.262   1_655  A
O459        C465   1.271       .  A
O459       Cd462   2.532       .  S
C460        O468   1.270       .  A
C460        C473   1.467       .  S
C461        O466   1.262       .  A
C461        O464   1.265   1_655  A
Cd462       O469   2.411       .  S
Cd462       O468   2.528       .  S
Cd462       O467   2.455   1_455  S
Cd462       O463   2.448       .  S
Cd462       O466   2.471   1_455  S
Cd462       O464   2.516       .  S
C465        O469   1.260       .  A
C465       C1477   1.492       .  S
O470        C473   1.262       .  A
O470       Cd475   2.386       .  S
C471        O480   1.265       .  A
C471        O476   1.262   1_565  A
C471        C876   1.458       .  S
O472        C478   1.264       .  A
O472       Cd475   2.493   1_565  S
C473        O481   1.271       .  A
C474        O479   1.272       .  A
C474        O477   1.261       .  A
C474       C1461   1.479       .  S
Cd475       O482   2.458       .  S
Cd475       O481   2.533       .  S
Cd475       O480   2.474   1_545  S
Cd475       O476   2.442       .  S
Cd475       O479   2.509       .  S
Cd475       O477   2.398       .  S
C478        O482   1.261   1_565  A
C478        C651   1.466       .  S
C483        C484   1.541       .  S
C483        C489   1.539       .  S
C483        C487   1.546       .  S
C483       C1458   1.548       .  S
C484        H491   1.086       .  S
C484        C485   1.366       .  D
C485        C486   1.538       .  S
C485       C1413   1.491       .  S
C486        C490   1.536       .  S
C486        C488   1.533       .  S
C486        H492   1.111       .  S
C487        H493   1.079       .  S
C487        C488   1.362       .  D
C488       C1426   1.481       .  S
C489        H494   1.086       .  S
C489        C490   1.369       .  D
C490       C1445   1.478       .  S
O495        C498   1.264       .  A
O495       Cd500   2.421       .  S
C496        O505   1.263       .  A
C496        O501   1.261       .  A
O497        C503   1.263       .  A
O497       Cd500   2.409       .  S
C498        O506   1.269       .  A
C498        C511   1.471       .  S
C499        O504   1.264       .  A
C499        O502   1.266       .  A
Cd500       O507   2.535       .  S
Cd500       O506   2.520       .  S
Cd500       O505   2.471       .  S
Cd500       O501   2.459       .  S
Cd500       O504   2.491       .  S
Cd500       O502   2.513       .  S
C503        O507   1.270       .  A
C503       C1394   1.501       .  S
O508        C511   1.263       .  A
O508       Cd513   2.415       .  S
C509        O518   1.265       .  A
C509        O514   1.262       .  A
C509        C764   1.453       .  S
O510        C516   1.263       .  A
O510       Cd513   2.466   1_565  S
C511        O519   1.271       .  A
C512        O517   1.273       .  A
C512        O515   1.257       .  A
C512       C1442   1.489       .  S
Cd513       O520   2.481   1_545  S
Cd513       O519   2.524       .  S
Cd513       O518   2.449   1_545  S
Cd513       O514   2.434   1_545  S
Cd513       O517   2.534       .  S
Cd513       O515   2.415       .  S
C516        O520   1.264       .  A
C516        C727   1.467       .  S
C521        C522   1.537       .  S
C521        C527   1.526       .  S
C521        C525   1.554       .  S
C521       C1381   1.550       .  S
C522        H529   1.070       .  S
C522        C523   1.369       .  D
C523        C524   1.546       .  S
C523       C1397   1.499       .  S
C524        C528   1.541       .  S
C524        C526   1.540       .  S
C524        H530   1.105       .  S
C525        H531   1.082       .  S
C525        C526   1.371       .  D
C526       C1429   1.493       .  S
C527        H532   1.088       .  S
C527        C528   1.356       .  D
C528       C1362   1.487       .  S
O533        C536   1.262       .  A
O533       Cd538   2.406       .  S
C534        O543   1.262       .  A
C534        O539   1.265       .  A
C534        C852   1.455       .  S
O535        C541   1.263       .  A
O535       Cd538   2.469       .  S
C536        O544   1.270       .  A
C536        C547   1.465       .  S
C537        O542   1.261       .  A
C537        O540   1.269       .  A
C537       C1346   1.504       .  S
Cd538       O545   2.504       .  S
Cd538       O544   2.511       .  S
Cd538       O543   2.450       .  S
Cd538       O539   2.450       .  S
Cd538       O542   2.434       .  S
Cd538       O540   2.532       .  S
C541        O545   1.264       .  A
C541        C702   1.472       .  S
O546        C549   1.261       .  A
O546       Cd551   2.464       .  S
C547        O556   1.268       .  A
C547        O552   1.264       .  A
O548        C554   1.263       .  A
O548       Cd551   2.472       .  S
C549        O557   1.264       .  A
C550        O555   1.269       .  A
C550        O553   1.263       .  A
C550       C1378   1.493       .  S
Cd551       O558   2.487       .  S
Cd551       O557   2.485       .  S
Cd551       O556   2.505       .  S
Cd551       O552   2.411       .  S
Cd551       O555   2.506       .  S
Cd551       O553   2.410       .  S
C554        O558   1.264       .  A
C559        C560   1.550       .  S
C559        C565   1.543       .  S
C559        C563   1.548       .  S
C559       C1474   1.558       .  S
C560        H567   1.083       .  S
C560        C561   1.373       .  D
C561        C562   1.535       .  S
C561       C1330   1.502       .  S
C562        C566   1.535       .  S
C562        C564   1.541       .  S
C562        H568   1.097       .  S
C563        H569   1.081       .  S
C563        C564   1.360       .  D
C564       C1314   1.480       .  S
C565        H570   1.086       .  S
C565        C566   1.374       .  D
C566       C1410   1.508       .  S
O571        C574   1.261       .  A
O571       Cd576   2.440       .  S
C572        O581   1.272       .  A
C572        O577   1.265       .  A
C572        C587   1.466       .  S
O573        C579   1.263       .  A
O573       Cd576   2.484       .  S
C574        O582   1.263   1_455  A
C575        O580   1.269       .  A
C575        O578   1.259       .  A
C575       C1333   1.479       .  S
Cd576       O583   2.493       .  S
Cd576       O582   2.451   1_455  S
Cd576       O581   2.506       .  S
Cd576       O577   2.400       .  S
Cd576       O580   2.505       .  S
Cd576       O578   2.438       .  S
C579        O583   1.262       .  A
O584        C587   1.265       .  A
O584       Cd589   2.406       .  S
C585        O594   1.264       .  A
C585        O590   1.260       .  A
C585        C803   1.455       .  S
O586        C592   1.260       .  A
O586       Cd589   2.470       .  S
C587        O595   1.270       .  A
C588        O593   1.270       .  A
C588        O591   1.259       .  A
C588       C1301   1.474       .  S
Cd589       O596   2.490       .  S
Cd589       O595   2.507       .  S
Cd589       O594   2.463       .  S
Cd589       O590   2.446       .  S
Cd589       O593   2.478       .  S
Cd589       O591   2.410       .  S
C592        O596   1.264       .  A
C592        C613   1.466   1_556  S
C597        C598   1.530       .  S
C597        C603   1.559       .  S
C597        C601   1.521       .  S
C597       C1298   1.533       .  S
C598        H605   1.084       .  S
C598        C599   1.362       .  D
C599        C600   1.548       .  S
C599       C1317   1.501       .  S
C600        C604   1.546       .  S
C600        C602   1.545       .  S
C600        H606   1.109       .  S
C601        H607   1.086       .  S
C601        C602   1.352       .  D
C602       C1365   1.474       .  S
C603        H608   1.075       .  S
C603        C604   1.376       .  D
C604       C1349   1.506       .  S
O609        C612   1.261       .  A
O609       Cd614   2.401       .  S
C610        O619   1.264       .  A
C610        O615   1.263   1_556  A
C610        C788   1.459       .  S
O611        C617   1.274       .  A
O611       Cd614   2.544       .  S
C612        O620   1.269       .  A
C612        C623   1.465       .  S
C613        O618   1.265       .  A
C613        O616   1.263       .  A
Cd614       O621   2.397       .  S
Cd614       O620   2.527       .  S
Cd614       O619   2.463   1_554  S
Cd614       O615   2.453       .  S
Cd614       O618   2.472       .  S
Cd614       O616   2.475       .  S
C617        O621   1.257       .  A
C617       C1285   1.497       .  S
O622        C625   1.261   1_455  A
O622       Cd627   2.450       .  S
C623        O632   1.268       .  A
C623        O628   1.263       .  A
O624        C630   1.270       .  A
O624       Cd627   2.463       .  S
C625        O633   1.265       .  A
C626        O631   1.263       .  A
C626        O629   1.265   1_655  A
Cd627       O634   2.464       .  S
Cd627       O633   2.459   1_455  S
Cd627       O632   2.512       .  S
Cd627       O628   2.407       .  S
Cd627       O631   2.447   1_455  S
Cd627       O629   2.488       .  S
C630        O634   1.262       .  A
C630       C1269   1.488       .  S
C635        C636   1.529       .  S
C635        C641   1.557       .  S
C635        C639   1.525       .  S
C635       C1266   1.548       .  S
C636        H643   1.086       .  S
C636        C637   1.365       .  D
C637        C638   1.546       .  S
C637       C1218   1.507       .  S
C638        C642   1.553       .  S
C638        C640   1.542       .  S
C638        H644   1.105       .  S
C639        H645   1.079       .  S
C639        C640   1.356       .  D
C640       C1237   1.485       .  S
C641        H646   1.083       .  S
C641        C642   1.381       .  D
C642       C1250   1.503       .  S
O647        C650   1.262       .  A
O647       Cd652   2.386       .  S
C648        O657   1.264       .  A
C648        O653   1.263       .  A
C648        C889   1.455       .  S
O649        C655   1.272       .  A
O649       Cd652   2.531       .  S
C650        O658   1.272       .  A
C650        C661   1.468       .  S
C651        O656   1.264       .  A
C651        O654   1.262       .  A
Cd652       O659   2.387       .  S
Cd652       O658   2.539       .  S
Cd652       O657   2.450       .  S
Cd652       O653   2.443       .  S
Cd652       O656   2.492       .  S
Cd652       O654   2.456       .  S
C655        O659   1.259       .  A
C655       C1202   1.488       .  S
O660        C663   1.259       .  A
O660       Cd665   2.432       .  S
C661        O670   1.273       .  A
C661        O666   1.265       .  A
O662        C668   1.262       .  A
O662       Cd665   2.471       .  S
C663        O671   1.265   1_455  A
C664        O669   1.265   1_455  A
C664        O667   1.261       .  A
Cd665       O672   2.500       .  S
Cd665       O671   2.484   1_455  S
Cd665       O670   2.527       .  S
Cd665       O666   2.383       .  S
Cd665       O669   2.528   1_455  S
Cd665       O667   2.487       .  S
C668        O672   1.269       .  A
C668       C1253   1.485       .  S
C673        C674   1.537       .  S
C673        C679   1.543       .  S
C673        C677   1.549       .  S
C673       C1205   1.548       .  S
C674        H681   1.083       .  S
C674        C675   1.370       .  D
C675        C676   1.537       .  S
C675       C1186   1.485       .  S
C676        C680   1.523       .  S
C676        C678   1.530       .  S
C676        H682   1.111       .  S
C677        H683   1.076       .  S
C677        C678   1.361       .  D
C678       C1173   1.480       .  S
C679        H684   1.084       .  S
C679        C680   1.362       .  D
C680       C1234   1.473       .  S
O685        C688   1.262       .  A
O685       Cd690   2.462       .  S
C686        O695   1.270       .  A
C686        O691   1.263       .  A
C686        C701   1.469       .  S
O687        C693   1.269       .  A
O687       Cd690   2.518       .  S
C688        O696   1.264       .  A
C689        O694   1.263       .  A
C689        O692   1.264       .  A
Cd690       O697   2.432       .  S
Cd690       O696   2.462       .  S
Cd690       O695   2.520       .  S
Cd690       O691   2.411       .  S
Cd690       O694   2.494       .  S
Cd690       O692   2.494       .  S
C693        O697   1.263       .  A
C693       C1154   1.502       .  S
O698        C701   1.262       .  A
O698       Cd703   2.411       .  S
C699        O708   1.264       .  A
C699        O704   1.262       .  A
C699        C863   1.458       .  S
O700        C706   1.270       .  A
O700       Cd703   2.525       .  S
C701        O709   1.269       .  A
C702        O707   1.262       .  A
C702        O705   1.266       .  A
Cd703       O710   2.404       .  S
Cd703       O709   2.526       .  S
Cd703       O708   2.459       .  S
Cd703       O704   2.452       .  S
Cd703       O707   2.462       .  S
Cd703       O705   2.503       .  S
C706        O710   1.261       .  A
C706       C1189   1.497       .  S
C711        C712   1.547       .  S
C711        C717   1.538       .  S
C711        C715   1.536       .  S
C711       C1138   1.545       .  S
C712        H719   1.076       .  S
C712        C713   1.378       .  D
C713        C714   1.549       .  S
C713       C1282   1.507       .  S
C714        C718   1.538       .  S
C714        C716   1.544       .  S
C714        H720   1.104       .  S
C715        H721   1.086       .  S
C715        C716   1.363       .  D
C716       C1221   1.500       .  S
C717        H722   1.087       .  S
C717        C718   1.359       .  D
C718       C1122   1.479       .  S
O723        C726   1.264       .  A
O723       Cd728   2.427       .  S
C724        O733   1.264       .  A
C724        O729   1.262   1_556  A
C724        C775   1.457       .  S
O725        C731   1.268       .  A
O725       Cd728   2.487       .  S
C726        O734   1.269       .  A
C726        C739   1.468       .  S
C727        O732   1.262       .  A
C727        O730   1.264   1_556  A
Cd728       O735   2.440       .  S
Cd728       O734   2.507       .  S
Cd728       O733   2.453   1_554  S
Cd728       O729   2.458       .  S
Cd728       O732   2.467   1_554  S
Cd728       O730   2.487       .  S
C731        O735   1.262       .  A
C731       C1141   1.487       .  S
O736        C739   1.264       .  A
O736       Cd741   2.416       .  S
C737        O746   1.264       .  A
C737        O742   1.261       .  A
O738        C744   1.263       .  A
O738       Cd741   2.486       .  S
C739        O747   1.271       .  A
C740        O745   1.257       .  A
C740        O743   1.272       .  A
C740       C1106   1.486       .  S
Cd741       O748   2.503       .  S
Cd741       O747   2.505       .  S
Cd741       O746   2.446       .  S
Cd741       O742   2.447       .  S
Cd741       O745   2.413       .  S
Cd741       O743   2.529       .  S
C744        O748   1.264       .  A
C749        C750   1.533       .  S
C749        C755   1.543       .  S
C749        C753   1.540       .  S
C749       C1109   1.549       .  S
C750        H757   1.088       .  S
C750        C751   1.356       .  D
C751        C752   1.544       .  S
C751       C1125   1.486       .  S
C752        C756   1.549       .  S
C752        C754   1.538       .  S
C752        H758   1.107       .  S
C753        H759   1.071       .  S
C753        C754   1.365       .  D
C754       C1170   1.488       .  S
C755        H760   1.080       .  S
C755        C756   1.375       .  D
C756       C1157   1.506       .  S
O761        C764   1.262       .  A
O761       Cd766   2.442       .  S
C762        O771   1.271       .  A
C762        O767   1.262       .  A
C762        C777   1.463       .  S
O763        C769   1.272       .  A
O763       Cd766   2.526       .  S
C764        O772   1.265       .  A
C765        O770   1.265       .  A
C765        O768   1.262       .  A
Cd766       O773   2.417       .  S
Cd766       O772   2.445       .  S
Cd766       O771   2.519       .  S
Cd766       O767   2.383       .  S
Cd766       O770   2.496       .  S
Cd766       O768   2.471       .  S
C769        O773   1.261       .  A
C769       C1090   1.491       .  S
O774        C777   1.264       .  A
O774       Cd779   2.382       .  S
C775        O784   1.265       .  A
C775        O780   1.261       .  A
O776        C782   1.272       .  A
O776       Cd779   2.505       .  S
C777        O785   1.271       .  A
C778        O783   1.263       .  A
C778        O781   1.262       .  A
Cd779       O786   2.397       .  S
Cd779       O785   2.509       .  S
Cd779       O784   2.469       .  S
Cd779       O780   2.439       .  S
Cd779       O783   2.474       .  S
Cd779       O781   2.468       .  S
C782        O786   1.258       .  A
C782       C1074   1.478       .  S
O787        C790   1.264       .  A
O787       Cd792   2.427       .  S
C788        O797   1.264       .  A
C788        O793   1.263       .  A
O789        C795   1.272       .  A
O789       Cd792   2.572       .  S
C790        O798   1.270       .  A
C790        C801   1.475       .  S
C791        O796   1.264   1_655  A
C791        O794   1.264       .  A
Cd792       O799   2.400       .  S
Cd792       O798   2.536       .  S
Cd792       O797   2.460       .  S
Cd792       O793   2.463       .  S
Cd792       O796   2.511       .  S
Cd792       O794   2.490   1_455  S
C795        O799   1.261       .  A
C795       C1061   1.504       .  S
O800        C803   1.262       .  A
O800       Cd805   2.442       .  S
C801        O810   1.270       .  A
C801        O806   1.263       .  A
O802        C808   1.271       .  A
O802       Cd805   2.509       .  S
C803        O811   1.265       .  A
C804        O809   1.261       .  A
C804        O807   1.267   1_455  A
Cd805       O812   2.440       .  S
Cd805       O811   2.449       .  S
Cd805       O810   2.538       .  S
Cd805       O806   2.430       .  S
Cd805       O809   2.451       .  S
Cd805       O807   2.540   1_455  S
C808        O812   1.261       .  A
C808       C1042   1.495       .  S
C813        C814   1.538       .  S
C813        C819   1.545       .  S
C813        C817   1.544       .  S
C813       C1077   1.541       .  S
C814        H821   1.084       .  S
C814        C815   1.368       .  D
C815        C816   1.539       .  S
C815       C1058   1.496       .  S
C816        C820   1.532       .  S
C816        C818   1.540       .  S
C816        H822   1.110       .  S
C817        H823   1.074       .  S
C817        C818   1.367       .  D
C818       C1026   1.489       .  S
C819        H824   1.086       .  S
C819        C820   1.359       .  D
C820       C1010   1.482       .  S
C825        C826   1.529       .  S
C825        C831   1.531       .  S
C825        C829   1.563       .  S
C825        C994   1.553       .  S
C826        H833   1.087       .  S
C826        C827   1.367       .  D
C827        C828   1.548       .  S
C827        C978   1.493       .  S
C828        C832   1.550       .  S
C828        C830   1.532       .  S
C828        H834   1.107       .  S
C829        H835   1.081       .  S
C829        C830   1.364       .  D
C830       C1013   1.497       .  S
C831        H836   1.086       .  S
C831        C832   1.371       .  D
C832       C1093   1.490       .  S
C837        C838   1.538       .  S
C837        C843   1.547       .  S
C837        C841   1.549       .  S
C837       C1045   1.558       .  S
C838        H845   1.085       .  S
C838        C839   1.360       .  D
C839        C840   1.543       .  S
C839       C1029   1.501       .  S
C840        C844   1.548       .  S
C840        C842   1.527       .  S
C840        H846   1.108       .  S
C841        H847   1.086       .  S
C841        C842   1.362       .  D
C842        C946   1.481       .  S
C843        H848   1.075       .  S
C843        C844   1.377       .  D
C844        C962   1.495       .  S
O849        C852   1.260       .  A
O849       Cd854   2.441       .  S
C850        O859   1.273       .  A
C850        O855   1.264       .  A
C850        C865   1.464       .  S
O851        C857   1.258       .  A
O851       Cd854   2.414       .  S
C852        O860   1.264       .  A
C853        O858   1.264       .  A
C853        O856   1.262       .  A
Cd854       O861   2.544       .  S
Cd854       O860   2.461       .  S
Cd854       O859   2.517       .  S
Cd854       O855   2.372       .  S
Cd854       O858   2.502       .  S
Cd854       O856   2.490       .  S
C857        O861   1.272       .  A
C857        C965   1.491       .  S
O862        C865   1.262       .  A
O862       Cd867   2.377       .  S
C863        O872   1.265       .  A
C863        O868   1.263       .  A
O864        C870   1.273       .  A
O864       Cd867   2.559       .  S
C865        O873   1.271       .  A
C866        O871   1.267       .  A
C866        O869   1.260       .  A
Cd867       O874   2.420       .  S
Cd867       O873   2.527       .  S
Cd867       O872   2.458       .  S
Cd867       O868   2.448       .  S
Cd867       O871   2.531       .  S
Cd867       O869   2.466       .  S
C870        O874   1.260       .  A
C870        C930   1.503       .  S
O875        C878   1.264       .  A
O875       Cd880   2.420       .  S
C876        O885   1.262       .  A
C876        O881   1.263       .  A
O877        C883   1.262   1_455  A
O877       Cd880   2.488       .  S
C878        O886   1.270       .  A
C878        C891   1.472       .  S
C879        O884   1.261       .  A
C879        O882   1.272       .  A
C879        C997   1.500       .  S
Cd880       O887   2.494   1_455  S
Cd880       O886   2.526       .  S
Cd880       O885   2.467       .  S
Cd880       O881   2.450       .  S
Cd880       O884   2.408       .  S
Cd880       O882   2.540       .  S
C883        O887   1.264       .  A
O888        C891   1.262       .  A
O888       Cd893   2.430       .  S
C889        O898   1.264       .  A
C889        O894   1.264       .  A
O890        C896   1.271       .  A
O890       Cd893   2.507       .  S
C891        O899   1.268       .  A
C892        O897   1.260       .  A
C892        O895   1.269       .  A
Cd893       O900   2.424       .  S
Cd893       O899   2.528       .  S
Cd893       O898   2.446       .  S
Cd893       O894   2.447       .  S
Cd893       O897   2.413       .  S
Cd893       O895   2.543       .  S
C896        O900   1.262       .  A
C896        C914   1.496       .  S
C901        C902   1.534       .  S
C901        C907   1.526       .  S
C901        C905   1.564       .  S
C901        C917   1.550       .  S
C902        H909   1.078       .  S
C902        C903   1.373       .  D
C903        C904   1.554       .  S
C903        C933   1.497       .  S
C904        C908   1.545       .  S
C904        C906   1.525       .  S
C904        H910   1.111       .  S
C905        H911   1.081       .  S
C905        C906   1.367       .  D
C906        C949   1.487       .  S
C907        H912   1.087       .  S
C907        C908   1.351       .  D
C908        C981   1.486       .  S
C913        C914   1.407       .  A
C913        C918   1.408       .  A
C913        H920   1.082       .  S
C914        C915   1.415       .  A
C915        C922   1.520       .  S
C915        C916   1.410       .  A
C916        C917   1.416       .  A
C916        H921   1.074       .  S
C917        C918   1.429       .  A
C918        C919   1.527       .  S
C919        F923   1.385       .  S
C919        F924   1.381       .  S
C919        F925   1.380       .  S
C922        F926   1.384       .  S
C922        F927   1.383       .  S
C922        F928   1.385       .  S
C929        C930   1.408       .  A
C929        C934   1.406       .  A
C929        H936   1.083       .  S
C930        C931   1.420       .  A
C931        C938   1.515       .  S
C931        C932   1.418       .  A
C932        C933   1.407       .  A
C932        H937   1.083       .  S
C933        C934   1.424       .  A
C934        C935   1.528       .  S
C935        F939   1.385       .  S
C935        F940   1.381       .  S
C935        F941   1.380       .  S
C938        F942   1.383       .  S
C938        F943   1.383       .  S
C938        F944   1.384       .  S
C945        C946   1.399       .  A
C945        C950   1.400       .  A
C945        H952   1.077       .  S
C946        C947   1.412       .  A
C947        C954   1.515       .  S
C947        C948   1.408       .  A
C948        C949   1.405       .  A
C948        H953   1.081       .  S
C949        C950   1.415       .  A
C950        C951   1.513       .  S
C951        F955   1.385       .  S
C951        F956   1.380       .  S
C951        F957   1.381       .  S
C954        F958   1.383       .  S
C954        F959   1.380       .  S
C954        F960   1.385       .  S
C961        C962   1.400       .  A
C961        C966   1.405       .  A
C961        H968   1.083       .  S
C962        C963   1.422       .  A
C963        C970   1.514       .  S
C963        C964   1.413       .  A
C964        C965   1.403       .  A
C964        H969   1.084       .  S
C965        C966   1.426       .  A
C966        C967   1.523       .  S
C967        F971   1.385       .  S
C967        F972   1.381       .  S
C967        F973   1.382       .  S
C970        F974   1.381       .  S
C970        F975   1.383       .  S
C970        F976   1.384       .  S
C977        C978   1.400       .  A
C977        C982   1.388       .  A
C977        H984   1.085       .  S
C978        C979   1.416       .  A
C979        C986   1.514       .  S
C979        C980   1.415       .  A
C980        C981   1.408       .  A
C980        H985   1.083       .  S
C981        C982   1.430       .  A
C982        C983   1.531       .  S
C983        F987   1.385       .  S
C983        F988   1.371       .  S
C983        F989   1.384       .  S
C986        F990   1.380       .  S
C986        F991   1.383       .  S
C986        F992   1.385       .  S
C993        C994   1.416       .  A
C993        C998   1.413       .  A
C993       H1000   1.076       .  S
C994        C995   1.428       .  A
C995       C1002   1.524       .  S
C995        C996   1.404       .  A
C996        C997   1.408       .  A
C996       H1001   1.084       .  S
C997        C998   1.418       .  A
C998        C999   1.519       .  S
C999       F1003   1.385       .  S
C999       F1004   1.383       .  S
C999       F1005   1.383       .  S
C1002      F1006   1.384       .  S
C1002      F1007   1.376       .  S
C1002      F1008   1.383       .  S
C1009      C1010   1.399       .  A
C1009      C1014   1.406       .  A
C1009      H1016   1.083       .  S
C1010      C1011   1.414       .  A
C1011      C1018   1.518       .  S
C1011      C1012   1.407       .  A
C1012      C1013   1.406       .  A
C1012      H1017   1.080       .  S
C1013      C1014   1.420       .  A
C1014      C1015   1.510       .  S
C1015      F1019   1.385       .  S
C1015      F1020   1.377       .  S
C1015      F1021   1.379       .  S
C1018      F1022   1.381       .  S
C1018      F1023   1.383       .  S
C1018      F1024   1.385       .  S
C1025      C1026   1.399       .  A
C1025      C1030   1.397       .  A
C1025      H1032   1.087       .  S
C1026      C1027   1.422       .  A
C1027      C1034   1.519       .  S
C1027      C1028   1.405       .  A
C1028      C1029   1.405       .  A
C1028      H1033   1.083       .  S
C1029      C1030   1.428       .  A
C1030      C1031   1.521       .  S
C1031      F1035   1.386       .  S
C1031      F1036   1.382       .  S
C1031      F1037   1.374       .  S
C1034      F1038   1.383       .  S
C1034      F1039   1.382       .  S
C1034      F1040   1.385       .  S
C1041      C1042   1.410       .  A
C1041      C1046   1.417       .  A
C1041      H1048   1.083       .  S
C1042      C1043   1.412       .  A
C1043      C1050   1.521       .  S
C1043      C1044   1.403       .  A
C1044      C1045   1.419       .  A
C1044      H1049   1.078       .  S
C1045      C1046   1.429       .  A
C1046      C1047   1.516       .  S
C1047      F1051   1.386       .  S
C1047      F1052   1.382       .  S
C1047      F1053   1.383       .  S
C1050      F1054   1.383       .  S
C1050      F1055   1.383       .  S
C1050      F1056   1.385       .  S
C1057      C1058   1.408       .  A
C1057      C1062   1.419       .  A
C1057      H1064   1.083       .  S
C1058      C1059   1.419       .  A
C1059      C1066   1.524       .  S
C1059      C1060   1.403       .  A
C1060      C1061   1.409       .  A
C1060      H1065   1.082       .  S
C1061      C1062   1.423       .  A
C1062      C1063   1.517       .  S
C1063      F1067   1.385       .  S
C1063      F1068   1.383       .  S
C1063      F1069   1.383       .  S
C1066      F1070   1.382       .  S
C1066      F1071   1.385       .  S
C1066      F1072   1.380       .  S
C1073      C1074   1.400       .  A
C1073      C1078   1.408       .  A
C1073      H1080   1.085       .  S
C1074      C1075   1.422       .  A
C1075      C1082   1.524       .  S
C1075      C1076   1.402       .  A
C1076      C1077   1.406       .  A
C1076      H1081   1.083       .  S
C1077      C1078   1.427       .  A
C1078      C1079   1.516       .  S
C1079      F1083   1.385       .  S
C1079      F1084   1.383       .  S
C1079      F1085   1.383       .  S
C1082      F1086   1.383       .  S
C1082      F1087   1.383       .  S
C1082      F1088   1.385       .  S
C1089      C1090   1.407       .  A
C1089      C1094   1.404       .  A
C1089      H1096   1.085       .  S
C1090      C1091   1.416       .  A
C1091      C1098   1.517       .  S
C1091      C1092   1.412       .  A
C1092      C1093   1.407       .  A
C1092      H1097   1.079       .  S
C1093      C1094   1.421       .  A
C1094      C1095   1.523       .  S
C1095      F1099   1.384       .  S
C1095      F1100   1.376       .  S
C1095      F1101   1.383       .  S
C1098      F1102   1.382       .  S
C1098      F1103   1.384       .  S
C1098      F1104   1.385       .  S
C1105      C1106   1.399       .  A
C1105      C1110   1.410       .  A
C1105      H1112   1.084       .  S
C1106      C1107   1.422       .  A
C1107      C1114   1.523       .  S
C1107      C1108   1.404       .  A
C1108      C1109   1.409       .  A
C1108      H1113   1.083       .  S
C1109      C1110   1.432       .  A
C1110      C1111   1.517       .  S
C1111      F1115   1.385       .  S
C1111      F1116   1.383       .  S
C1111      F1117   1.384       .  S
C1114      F1118   1.382       .  S
C1114      F1119   1.384       .  S
C1114      F1120   1.385       .  S
C1121      C1122   1.399       .  A
C1121      C1126   1.405       .  A
C1121      H1128   1.084       .  S
C1122      C1123   1.421       .  A
C1123      C1130   1.519       .  S
C1123      C1124   1.405       .  A
C1124      C1125   1.403       .  A
C1124      H1129   1.085       .  S
C1125      C1126   1.416       .  A
C1126      C1127   1.509       .  S
C1127      F1131   1.383       .  S
C1127      F1132   1.379       .  S
C1127      F1133   1.381       .  S
C1130      F1134   1.380       .  S
C1130      F1135   1.383       .  S
C1130      F1136   1.384       .  S
C1137      C1138   1.414       .  A
C1137      C1142   1.404       .  A
C1137      H1144   1.083       .  S
C1138      C1139   1.424       .  A
C1139      C1146   1.516       .  S
C1139      C1140   1.410       .  A
C1140      C1141   1.407       .  A
C1140      H1145   1.085       .  S
C1141      C1142   1.415       .  A
C1142      C1143   1.519       .  S
C1143      F1147   1.385       .  S
C1143      F1148   1.384       .  S
C1143      F1149   1.383       .  S
C1146      F1150   1.383       .  S
C1146      F1151   1.385   1_554  S
C1146      F1152   1.383       .  S
C1153      C1154   1.406       .  A
C1153      C1158   1.407       .  A
C1153      H1160   1.078       .  S
C1154      C1155   1.419       .  A
C1155      C1162   1.518       .  S
C1155      C1156   1.415       .  A
C1156      C1157   1.411       .  A
C1156      H1161   1.082       .  S
C1157      C1158   1.427       .  A
C1158      C1159   1.527       .  S
C1159      F1163   1.384       .  S
C1159      F1164   1.381       .  S
C1159      F1165   1.382       .  S
C1162      F1166   1.383       .  S
C1162      F1167   1.384       .  S
C1162      F1168   1.384       .  S
C1169      C1170   1.402       .  A
C1169      C1174   1.398       .  A
C1169      H1176   1.080       .  S
C1170      C1171   1.418       .  A
C1171      C1178   1.517       .  S
C1171      C1172   1.407       .  A
C1172      C1173   1.404       .  A
C1172      H1177   1.083       .  S
C1173      C1174   1.420       .  A
C1174      C1175   1.526       .  S
C1175      F1179   1.379       .  S
C1175      F1180   1.381       .  S
C1175      F1181   1.385       .  S
C1178      F1182   1.380       .  S
C1178      F1183   1.379       .  S
C1178      F1184   1.385       .  S
C1185      C1186   1.405       .  A
C1185      C1190   1.412       .  A
C1185      H1192   1.083       .  S
C1186      C1187   1.414       .  A
C1187      C1194   1.523       .  S
C1187      C1188   1.403       .  A
C1188      C1189   1.411       .  A
C1188      H1193   1.082       .  S
C1189      C1190   1.422       .  A
C1190      C1191   1.518       .  S
C1191      F1195   1.385       .  S
C1191      F1196   1.383       .  S
C1191      F1197   1.383       .  S
C1194      F1198   1.383       .  S
C1194      F1199   1.385       .  S
C1194      F1200   1.380       .  S
C1201      C1202   1.405       .  A
C1201      C1206   1.401       .  A
C1201      H1208   1.085       .  S
C1202      C1203   1.414       .  A
C1203      C1210   1.518       .  S
C1203      C1204   1.412       .  A
C1204      C1205   1.417       .  A
C1204      H1209   1.077       .  S
C1205      C1206   1.427       .  A
C1206      C1207   1.522       .  S
C1207      F1211   1.384       .  S
C1207      F1212   1.375       .  S
C1207      F1213   1.381       .  S
C1210      F1214   1.384       .  S
C1210      F1215   1.382       .  S
C1210      F1216   1.385       .  S
C1217      C1218   1.408       .  A
C1217      C1222   1.398       .  A
C1217      H1224   1.081       .  S
C1218      C1219   1.422       .  A
C1219      C1226   1.515       .  S
C1219      C1220   1.412       .  A
C1220      C1221   1.410       .  A
C1220      H1225   1.083       .  S
C1221      C1222   1.414       .  A
C1222      C1223   1.513       .  S
C1223      F1227   1.385       .  S
C1223      F1228   1.378       .  S
C1223      F1229   1.378       .  S
C1226      F1230   1.382       .  S
C1226      F1231   1.377       .  S
C1226      F1232   1.386       .  S
C1233      C1234   1.402       .  A
C1233      C1238   1.406       .  A
C1233      H1240   1.083       .  S
C1234      C1235   1.412       .  A
C1235      C1242   1.516       .  S
C1235      C1236   1.397       .  A
C1236      C1237   1.404       .  A
C1236      H1241   1.084       .  S
C1237      C1238   1.415       .  A
C1238      C1239   1.514       .  S
C1239      F1243   1.380       .  S
C1239      F1244   1.382       .  S
C1239      F1245   1.382       .  S
C1242      F1246   1.382       .  S
C1242      F1247   1.380       .  S
C1242      F1248   1.384       .  S
C1249      C1250   1.408       .  A
C1249      C1254   1.416       .  A
C1249      H1256   1.083       .  S
C1250      C1251   1.422       .  A
C1251      C1258   1.514       .  S
C1251      C1252   1.407       .  A
C1252      C1253   1.400       .  A
C1252      H1257   1.084       .  S
C1253      C1254   1.414       .  A
C1254      C1255   1.514       .  S
C1255      F1259   1.384       .  S
C1255      F1260   1.384       .  S
C1255      F1261   1.382       .  S
C1258      F1262   1.378       .  S
C1258      F1263   1.382       .  S
C1258      F1264   1.385       .  S
C1265      C1266   1.412       .  A
C1265      C1270   1.414       .  A
C1265      H1272   1.078       .  S
C1266      C1267   1.447       .  A
C1267      C1274   1.537       .  S
C1267      C1268   1.403       .  A
C1268      C1269   1.392       .  A
C1268      H1273   1.082       .  S
C1269      C1270   1.416       .  A
C1270      C1271   1.516   1_455  S
C1271      F1275   1.381       .  S
C1271      F1276   1.384       .  S
C1271      F1277   1.382       .  S
C1274      F1278   1.381       .  S
C1274      F1279   1.378       .  S
C1274      F1280   1.386       .  S
C1281      C1282   1.407       .  A
C1281      C1286   1.406       .  A
C1281      H1288   1.081       .  S
C1282      C1283   1.422       .  A
C1283      C1290   1.515       .  S
C1283      C1284   1.410       .  A
C1284      C1285   1.405       .  A
C1284      H1289   1.084       .  S
C1285      C1286   1.428       .  A
C1286      C1287   1.525       .  S
C1287      F1291   1.385   1_554  S
C1287      F1292   1.383       .  S
C1287      F1293   1.384   1_554  S
C1290      F1294   1.382       .  S
C1290      F1295   1.377       .  S
C1290      F1296   1.384       .  S
C1297      C1298   1.411       .  A
C1297      C1302   1.405       .  A
C1297      H1304   1.075       .  S
C1298      C1299   1.440       .  A
C1299      C1306   1.532       .  S
C1299      C1300   1.401       .  A
C1300      C1301   1.394       .  A
C1300      H1305   1.086       .  S
C1301      C1302   1.413       .  A
C1302      C1303   1.519       .  S
C1303      F1307   1.385       .  S
C1303      F1308   1.383       .  S
C1303      F1309   1.382       .  S
C1306      F1310   1.374       .  S
C1306      F1311   1.384       .  S
C1306      F1312   1.384       .  S
C1313      C1314   1.396       .  A
C1313      C1318   1.401       .  A
C1313      H1320   1.085       .  S
C1314      C1315   1.414       .  A
C1315      C1322   1.520       .  S
C1315      C1316   1.414       .  A
C1316      C1317   1.410       .  A
C1316      H1321   1.081       .  S
C1317      C1318   1.426       .  A
C1318      C1319   1.521       .  S
C1319      F1323   1.384       .  S
C1319      F1324   1.382       .  S
C1319      F1325   1.382       .  S
C1322      F1326   1.383       .  S
C1322      F1327   1.381       .  S
C1322      F1328   1.384       .  S
C1329      C1330   1.406       .  A
C1329      C1334   1.406       .  A
C1329      H1336   1.080       .  S
C1330      C1331   1.425       .  A
C1331      C1338   1.516       .  S
C1331      C1332   1.412       .  A
C1332      C1333   1.401       .  A
C1332      H1337   1.083       .  S
C1333      C1334   1.414       .  A
C1334      C1335   1.520       .  S
C1335      F1339   1.383       .  S
C1335      F1340   1.382       .  S
C1335      F1341   1.384       .  S
C1338      F1342   1.382       .  S
C1338      F1343   1.380       .  S
C1338      F1344   1.385       .  S
C1345      C1346   1.409       .  A
C1345      C1350   1.409       .  A
C1345      H1352   1.080       .  S
C1346      C1347   1.420       .  A
C1347      C1354   1.518       .  S
C1347      C1348   1.413       .  A
C1348      C1349   1.409       .  A
C1348      H1353   1.082       .  S
C1349      C1350   1.425       .  A
C1350      C1351   1.525       .  S
C1351      F1355   1.386       .  S
C1351      F1356   1.381       .  S
C1351      F1357   1.381       .  S
C1354      F1358   1.383       .  S
C1354      F1359   1.383       .  S
C1354      F1360   1.385       .  S
C1361      C1362   1.406       .  A
C1361      C1366   1.406       .  A
C1361      H1368   1.083       .  S
C1362      C1363   1.418       .  A
C1363      C1370   1.508       .  S
C1363      C1364   1.401       .  A
C1364      C1365   1.395       .  A
C1364      H1369   1.082       .  S
C1365      C1366   1.415       .  A
C1366      C1367   1.519       .  S
C1367      F1371   1.385       .  S
C1367      F1372   1.381       .  S
C1367      F1373   1.382       .  S
C1370      F1374   1.379       .  S
C1370      F1375   1.375       .  S
C1370      F1376   1.383       .  S
C1377      C1378   1.401       .  A
C1377      C1382   1.406       .  A
C1377      H1384   1.081       .  S
C1378      C1379   1.413       .  A
C1379      C1386   1.520       .  S
C1379      C1380   1.411       .  A
C1380      C1381   1.419       .  A
C1380      H1385   1.073       .  S
C1381      C1382   1.439       .  A
C1382      C1383   1.534       .  S
C1383      F1387   1.381       .  S
C1383      F1388   1.379       .  S
C1383      F1389   1.386       .  S
C1386      F1390   1.383       .  S
C1386      F1391   1.383       .  S
C1386      F1392   1.385       .  S
C1393      C1394   1.408       .  A
C1393      C1398   1.404       .  A
C1393      H1400   1.079       .  S
C1394      C1395   1.420       .  A
C1395      C1402   1.518       .  S
C1395      C1396   1.413       .  A
C1396      C1397   1.409       .  A
C1396      H1401   1.082       .  S
C1397      C1398   1.425       .  A
C1398      C1399   1.528       .  S
C1399      F1403   1.385       .  S
C1399      F1404   1.382       .  S
C1399      F1405   1.381       .  S
C1402      F1406   1.383       .  S
C1402      F1407   1.383       .  S
C1402      F1408   1.385       .  S
C1409      C1410   1.408       .  A
C1409      C1414   1.400       .  A
C1409      H1416   1.084       .  S
C1410      C1411   1.428       .  A
C1411      C1418   1.519       .  S
C1411      C1412   1.411       .  A
C1412      C1413   1.403       .  A
C1412      H1417   1.082       .  S
C1413      C1414   1.414       .  A
C1414      C1415   1.513       .  S
C1415      F1419   1.384       .  S
C1415      F1420   1.380       .  S
C1415      F1421   1.382       .  S
C1418      F1422   1.383       .  S
C1418      F1423   1.374       .  S
C1418      F1424   1.385       .  S
C1425      C1426   1.403       .  A
C1425      C1430   1.411       .  A
C1425      H1432   1.083       .  S
C1426      C1427   1.416       .  A
C1427      C1434   1.522       .  S
C1427      C1428   1.399       .  A
C1428      C1429   1.403       .  A
C1428      H1433   1.084       .  S
C1429      C1430   1.421       .  A
C1430      C1431   1.518       .  S
C1431      F1435   1.380       .  S
C1431      F1436   1.379       .  S
C1431      F1437   1.385       .  S
C1434      F1438   1.382       .  S
C1434      F1439   1.382       .  S
C1434      F1440   1.383       .  S
C1441      C1442   1.406       .  A
C1441      C1446   1.410       .  A
C1441      H1448   1.083       .  S
C1442      C1443   1.428       .  A
C1443      C1450   1.522       .  S
C1443      C1444   1.404       .  A
C1444      C1445   1.395       .  A
C1444      H1449   1.084       .  S
C1445      C1446   1.412       .  A
C1446      C1447   1.514       .  S
C1447      F1451   1.384       .  S
C1447      F1452   1.383       .  S
C1447      F1453   1.382       .  S
C1450      F1454   1.383   1_545  S
C1450      F1455   1.383       .  S
C1450      F1456   1.385       .  S
C1457      C1458   1.421       .  A
C1457      C1462   1.411       .  A
C1457      H1464   1.075       .  S
C1458      C1459   1.431       .  A
C1459      C1466   1.523       .  S
C1459      C1460   1.401       .  A
C1460      C1461   1.399       .  A
C1460      H1465   1.086       .  S
C1461      C1462   1.408       .  A
C1462      C1463   1.518       .  S
C1463      F1467   1.385       .  S
C1463      F1468   1.382       .  S
C1463      F1469   1.383       .  S
C1466      F1470   1.382       .  S
C1466      F1471   1.373       .  S
C1466      F1472   1.382   1_545  S
C1473      C1474   1.421       .  A
C1473      C1478   1.417       .  A
C1473      H1480   1.075       .  S
C1474      C1475   1.435       .  A
C1475      C1482   1.522       .  S
C1475      C1476   1.403       .  A
C1476      C1477   1.401       .  A
C1476      H1481   1.085       .  S
C1477      C1478   1.411       .  A
C1478      C1479   1.517       .  S
C1479      F1483   1.384       .  S
C1479      F1484   1.384       .  S
C1479      F1485   1.382       .  S
C1482      F1486   1.385       .  S
C1482      F1487   1.368       .  S
C1482      F1488   1.384       .  S
C1489      C1490   1.399       .  A
C1489      C1494   1.407       .  A
C1489      H1496   1.085       .  S
C1490      C1491   1.422       .  A
C1491      C1498   1.521       .  S
C1491      C1492   1.404       .  A
C1492      C1493   1.404       .  A
C1492      H1497   1.083       .  S
C1493      C1494   1.428       .  A
C1494      C1495   1.518       .  S
C1495      F1499   1.385       .  S
C1495      F1500   1.384       .  S
C1495      F1501   1.383       .  S
C1498      F1502   1.383       .  S
C1498      F1503   1.381       .  S
C1498      F1504   1.385       .  S
C1505      C1506   1.407       .  A
C1505      C1510   1.403       .  A
C1505      H1512   1.082       .  S
C1506      C1507   1.417       .  A
C1507      C1514   1.517       .  S
C1507      C1508   1.413       .  A
C1508      C1509   1.409       .  A
C1508      H1513   1.082       .  S
C1509      C1510   1.418       .  A
C1510      C1511   1.523       .  S
C1511      F1515   1.385       .  S
C1511      F1516   1.380       .  S
C1511      F1517   1.383       .  S
C1514      F1518   1.383       .  S
C1514      F1519   1.383       .  S
C1514      F1520   1.385       .  S
C1521      C1522   1.402       .  A
C1521      C1526   1.398       .  A
C1521      H1528   1.083       .  S
C1522      C1523   1.417       .  A
C1523      C1530   1.515       .  S
C1523      C1524   1.405       .  A
C1524      C1525   1.402       .  A
C1524      H1529   1.083       .  S
C1525      C1526   1.418       .  A
C1526      C1527   1.522       .  S
C1527      F1531   1.384       .  S
C1527      F1532   1.383       .  S
C1527      F1533   1.379       .  S
C1530      F1534   1.378       .  S
C1530      F1535   1.380       .  S
C1530      F1536   1.385       .  S
C1537      C1538   1.399       .  A
C1537      C1542   1.410       .  A
C1537      H1544   1.083       .  S
C1538      C1539   1.421       .  A
C1539      C1546   1.518       .  S
C1539      C1540   1.416       .  A
C1540      C1541   1.407       .  A
C1540      H1545   1.083       .  S
C1541      C1542   1.429       .  A
C1542      C1543   1.524       .  S
C1543      F1547   1.385       .  S
C1543      F1548   1.380       .  S
C1543      F1549   1.384       .  S
C1546      F1550   1.382       .  S
C1546      F1551   1.381       .  S
C1546      F1552   1.384       .  S
C1553      C1554   1.411       .  A
C1553      C1558   1.411       .  A
C1553      H1560   1.082       .  S
C1554      C1555   1.421       .  A
C1555      C1562   1.511       .  S
C1555      C1556   1.399       .  A
C1556      C1557   1.393       .  A
C1556      H1561   1.079       .  S
C1557      C1558   1.411       .  A
C1558      C1559   1.517       .  S
C1559      F1563   1.384       .  S
C1559      F1564   1.381       .  S
C1559      F1565   1.384       .  S
C1562      F1566   1.375       .  S
C1562      F1567   1.378       .  S
C1562      F1568   1.382       .  S
C1569      C1570   1.405       .  A
C1569      C1574   1.413       .  A
C1569      H1576   1.080       .  S
C1570      C1571   1.420       .  A
C1571      C1578   1.522       .  S
C1571      C1572   1.403       .  A
C1572      C1573   1.409       .  A
C1572      H1577   1.084       .  S
C1573      C1574   1.420       .  A
C1574      C1575   1.516       .  S
C1575      F1579   1.385       .  S
C1575      F1580   1.382       .  S
C1575      F1581   1.383       .  S
C1578      F1582   1.379       .  S
C1578      F1583   1.383       .  S
C1578      F1584   1.385       .  S
C1585      C1586   1.411       .  A
C1585      C1590   1.416       .  A
C1585      H1592   1.083       .  S
C1586      C1587   1.425       .  A
C1587      C1594   1.527       .  S
C1587      C1588   1.394       .  A
C1588      C1589   1.405       .  A
C1588      H1593   1.083       .  S
C1589      C1590   1.414       .  A
C1590      C1591   1.515       .  S
C1591      F1595   1.384       .  S
C1591      F1596   1.381       .  S
C1591      F1597   1.383       .  S
C1594      F1598   1.373       .  S
C1594      F1599   1.382       .  S
C1594      F1600   1.386       .  S
C1601      C1602   1.402       .  A
C1601      C1606   1.408       .  A
C1601      H1608   1.085       .  S
C1602      C1603   1.413       .  A
C1603      C1610   1.509       .  S
C1603      C1604   1.398       .  A
C1604      C1605   1.400       .  A
C1604      H1609   1.082       .  S
C1605      C1606   1.423       .  A
C1606      C1607   1.520       .  S
C1607      F1611   1.384       .  S
C1607      F1612   1.379       .  S
C1607      F1613   1.383       .  S
C1610      F1614   1.378       .  S
C1610      F1615   1.378       .  S
C1610      F1616   1.384       .  S
C1617      C1618   1.397       .  A
C1617      C1622   1.409       .  A
C1617      H1624   1.082       .  S
C1618      C1619   1.419       .  A
C1619      C1626   1.517       .  S
C1619      C1620   1.412       .  A
C1620      C1621   1.410       .  A
C1620      H1625   1.076       .  S
C1621      C1622   1.444       .  A
C1622      C1623   1.534       .  S
C1623      F1627   1.385       .  S
C1623      F1628   1.381       .  S
C1623      F1629   1.377       .  S
C1626      F1630   1.384       .  S
C1626      F1631   1.382       .  S
C1626      F1632   1.385       .  S
C1633      C1634   1.406       .  A
C1633      C1638   1.415       .  A
C1633      H1640   1.083       .  S
C1634      C1635   1.417       .  A
C1635      C1642   1.520       .  S
C1635      C1636   1.406       .  A
C1636      C1637   1.405       .  A
C1636      H1641   1.080       .  S
C1637      C1638   1.423       .  A
C1638      C1639   1.521       .  S
C1639      F1643   1.379       .  S
C1639      F1644   1.385       .  S
C1639      F1645   1.383       .  S
C1642      F1646   1.383       .  S
C1642      F1647   1.384       .  S
C1642      F1648   1.385       .  S
C1649      C1650   1.400       .  A
C1649      C1654   1.410       .  A
C1649      H1656   1.084       .  S
C1650      C1651   1.417       .  A
C1651      C1658   1.523       .  S
C1651      C1652   1.400       .  A
C1652      C1653   1.407       .  A
C1652      H1657   1.083       .  S
C1653      C1654   1.424       .  A
C1654      C1655   1.514       .  S
C1655      F1659   1.384       .  S
C1655      F1660   1.382       .  S
C1655      F1661   1.383       .  S
C1658      F1662   1.381       .  S
C1658      F1663   1.384       .  S
C1658      F1664   1.385       .  S
C1665      C1666   1.397       .  A
C1665      C1670   1.409       .  A
C1665      H1672   1.081       .  S
C1666      C1667   1.424       .  A
C1667      C1674   1.522       .  S
C1667      C1668   1.412       .  A
C1668      C1669   1.415       .  A
C1668      H1673   1.080       .  S
C1669      C1670   1.440       .  A
C1670      C1671   1.524       .  S
C1671      F1675   1.386       .  S
C1671      F1676   1.380       .  S
C1671      F1677   1.382       .  S
C1674      F1678   1.383       .  S
C1674      F1679   1.383       .  S
C1674      F1680   1.386       .  S
C1681      C1682   1.394       .  A
C1681      C1686   1.403       .  A
C1681      H1688   1.085       .  S
C1682      C1683   1.417       .  A
C1683      C1690   1.521       .  S
C1683      C1684   1.410       .  A
C1684      C1685   1.414       .  A
C1684      H1689   1.073       .  S
C1685      C1686   1.441       .  A
C1686      C1687   1.531       .  S
C1687      F1691   1.385       .  S
C1687      F1692   1.372       .  S
C1687      F1693   1.384       .  S
C1690      F1694   1.382       .  S
C1690      F1695   1.384       .  S
C1690      F1696   1.385       .  S
C1697      C1698   1.400       .  A
C1697      C1702   1.404       .  A
C1697      H1704   1.082       .  S
C1698      C1699   1.414       .  A
C1699      C1706   1.518       .  S
C1699      C1700   1.400       .  A
C1700      C1701   1.405       .  A
C1700      H1705   1.085       .  S
C1701      C1702   1.415       .  A
C1702      C1703   1.516       .  S
C1703      F1707   1.384       .  S
C1703      F1708   1.380       .  S
C1703      F1709   1.381       .  S
C1706      F1710   1.382       .  S
C1706      F1711   1.383       .  S
C1706      F1712   1.384       .  S
C1713      C1714   1.409       .  A
C1713      C1718   1.406       .  A
C1713      H1720   1.078       .  S
C1714      C1715   1.442       .  A
C1715      C1722   1.530       .  S
C1715      C1716   1.407       .  A
C1716      C1717   1.396       .  A
C1716      H1721   1.085       .  S
C1717      C1718   1.417       .  A
C1718      C1719   1.516   1_554  S
C1719      F1723   1.384       .  S
C1719      F1724   1.382       .  S
C1719      F1725   1.382       .  S
C1722      F1726   1.374       .  S
C1722      F1727   1.384       .  S
C1722      F1728   1.385       .  S
C1729      C1730   1.408       .  A
C1729      C1734   1.416       .  A
C1729      H1736   1.083       .  S
C1730      C1731   1.430       .  A
C1731      C1738   1.525       .  S
C1731      C1732   1.404       .  A
C1732      C1733   1.400       .  A
C1732      H1737   1.082       .  S
C1733      C1734   1.420       .  A
C1734      C1735   1.519       .  S
C1735      F1739   1.384       .  S
C1735      F1740   1.379       .  S
C1735      F1741   1.383       .  S
C1738      F1742   1.383       .  S
C1738      F1743   1.383       .  S
C1738      F1744   1.385       .  S
C1745      C1746   1.406       .  A
C1745      C1750   1.398       .  A
C1745      H1752   1.084       .  S
C1746      C1747   1.417       .  A
C1747      C1754   1.518       .  S
C1747      C1748   1.411       .  A
C1748      C1749   1.414       .  A
C1748      H1753   1.081       .  S
C1749      C1750   1.419       .  A
C1750      C1751   1.517       .  S
C1751      F1755   1.386       .  S
C1751      F1756   1.381       .  S
C1751      F1757   1.376       .  S
C1754      F1758   1.380       .  S
C1754      F1759   1.382       .  S
C1754      F1760   1.385       .  S
C1761      C1762   1.413       .  A
C1761      C1766   1.408       .  A
C1761      H1768   1.079       .  S
C1762      C1763   1.422       .  A
C1763      C1770   1.527       .  S
C1763      C1764   1.407       .  A
C1764      C1765   1.411       .  A
C1764      H1769   1.081       .  S
C1765      C1766   1.415       .  A
C1766      C1767   1.517       .  S
C1767      F1771   1.385       .  S
C1767      F1772   1.382       .  S
C1767      F1773   1.383       .  S
C1770      F1774   1.379       .  S
C1770      F1775   1.382       .  S
C1770      F1776   1.385       .  S
C1777      C1778   1.405       .  A
C1777      C1782   1.405       .  A
C1777      H1784   1.083       .  S
C1778      C1779   1.418       .  A
C1779      C1786   1.515       .  S
C1779      C1780   1.414       .  A
C1780      C1781   1.405       .  A
C1780      H1785   1.083       .  S
C1781      C1782   1.416       .  A
C1782      C1783   1.516       .  S
C1783      F1787   1.385       .  S
C1783      F1788   1.380       .  S
C1783      F1789   1.381       .  S
C1786      F1790   1.382       .  S
C1786      F1791   1.383       .  S
C1786      F1792   1.385       .  S
C1793      C1794   1.407       .  A
C1793      C1798   1.399       .  A
C1793      H1800   1.081       .  S
C1794      C1795   1.427       .  A
C1795      C1802   1.524       .  S
C1795      C1796   1.405       .  A
C1796      C1797   1.411       .  A
C1796      H1801   1.083       .  S
C1797      C1798   1.423       .  A
C1798      C1799   1.522       .  S
C1799      F1803   1.386       .  S
C1799      F1804   1.384       .  S
C1799      F1805   1.378       .  S
C1802      F1806   1.377       .  S
C1802      F1807   1.382       .  S
C1802      F1808   1.385       .  S
C1809      C1810   1.397       .  A
C1809      C1814   1.410       .  A
C1809      H1816   1.083       .  S
C1810      C1811   1.414       .  A
C1811      C1818   1.520       .  S
C1811      C1812   1.399       .  A
C1812      C1813   1.405       .  A
C1812      H1817   1.082       .  S
C1813      C1814   1.431       .  A
C1814      C1815   1.524       .  S
C1815      F1819   1.382       .  S
C1815      F1820   1.381       .  S
C1815      F1821   1.385       .  S
C1818      F1822   1.375       .  S
C1818      F1823   1.382       .  S
C1818      F1824   1.385       .  S
C1825      C1826   1.418       .  A
C1825      C1830   1.411       .  A
C1825      H1832   1.079       .  S
C1826      C1827   1.439       .  A
C1827      C1834   1.536       .  S
C1827      C1828   1.412       .  A
C1828      C1829   1.404       .  A
C1828      H1833   1.083       .  S
C1829      C1830   1.411       .  A
C1830      C1831   1.519       .  S
C1831      F1835   1.384       .  S
C1831      F1836   1.384       .  S
C1831      F1837   1.383       .  S
C1834      F1838   1.378       .  S
C1834      F1839   1.384       .  S
C1834      F1840   1.379       .  S
C1841      C1842   1.412       .  A
C1841      C1846   1.408       .  A
C1841      H1848   1.082       .  S
C1842      C1843   1.420       .  A
C1843      C1850   1.517       .  S
C1843      C1844   1.414       .  A
C1844      C1845   1.408       .  A
C1844      H1849   1.083       .  S
C1845      C1846   1.417       .  A
C1846      C1847   1.522       .  S
C1847      F1851   1.385       .  S
C1847      F1852   1.383       .  S
C1847      F1853   1.381       .  S
C1850      F1854   1.382       .  S
C1850      F1855   1.383       .  S
C1850      F1856   1.385       .  S
C1857      C1858   1.400       .  A
C1857      C1862   1.401       .  A
C1857      H1864   1.083       .  S
C1858      C1859   1.413       .  A
C1859      C1866   1.514       .  S
C1859      C1860   1.416       .  A
C1860      C1861   1.410       .  A
C1860      H1865   1.083       .  S
C1861      C1862   1.419       .  A
C1862      C1863   1.513       .  S
C1863      F1867   1.384       .  S
C1863      F1868   1.380       .  S
C1863      F1869   1.376       .  S
C1866      F1870   1.384       .  S
C1866      F1871   1.382       .  S
C1866      F1872   1.384       .  S
C1873      C1874   1.414       .  A
C1873      C1878   1.409       .  A
C1873      H1880   1.073       .  S
C1874      C1875   1.444       .  A
C1875      C1882   1.529       .  S
C1875      C1876   1.402       .  A
C1876      C1877   1.390       .  A
C1876      H1881   1.086       .  S
C1877      C1878   1.412       .  A
C1878      C1879   1.518       .  S
C1879      F1883   1.384       .  S
C1879      F1884   1.382       .  S
C1879      F1885   1.384       .  S
C1882      F1886   1.383       .  S
C1882      F1887   1.368       .  S
C1882      F1888   1.384       .  S
C1889      C1890   1.407       .  A
C1889      C1894   1.415       .  A
C1889      H1896   1.083       .  S
C1890      C1891   1.418       .  A
C1891      C1898   1.522       .  S
C1891      C1892   1.410       .  A
C1892      C1893   1.411       .  A
C1892      H1897   1.082       .  S
C1893      C1894   1.421       .  A
C1894      C1895   1.517       .  S
C1895      F1899   1.385       .  S
C1895      F1900   1.383       .  S
C1895      F1901   1.382       .  S
C1898      F1902   1.381       .  S
C1898      F1903   1.382       .  S
C1898      F1904   1.385       .  S
C1905      C1906   1.399       .  A
C1905      C1910   1.401       .  A
C1905      H1912   1.084       .  S
C1906      C1907   1.414       .  A
C1907      C1914   1.516       .  S
C1907      C1908   1.406       .  A
C1908      C1909   1.403       .  A
C1908      H1913   1.082       .  S
C1909      C1910   1.421       .  A
C1910      C1911   1.517       .  S
C1911      F1915   1.379       .  S
C1911      F1916   1.381       .  S
C1911      F1917   1.385       .  S
C1914      F1918   1.385       .  S
C1914      F1919   1.382       .  S
C1914      F1920   1.380       .  S
C1921      C1922   1.398       .  A
C1921      C1926   1.404       .  A
C1921      H1928   1.083       .  S
C1922      C1923   1.416       .  A
C1923      C1930   1.517       .  S
C1923      C1924   1.409       .  A
C1924      C1925   1.405       .  A
C1924      H1929   1.083       .  S
C1925      C1926   1.429       .  A
C1926      C1927   1.523       .  S
C1927      F1931   1.386       .  S
C1927      F1932   1.381       .  S
C1927      F1933   1.383       .  S
C1930      F1934   1.382       .  S
C1930      F1935   1.379       .  S
C1930      F1936   1.384       .  S
C1937      C1938   1.400       .  A
C1937      C1942   1.400       .  A
C1937      H1944   1.085       .  S
C1938      C1939   1.414       .  A
C1939      C1946   1.513       .  S
C1939      C1940   1.403       .  A
C1940      C1941   1.401       .  A
C1940      H1945   1.083       .  S
C1941      C1942   1.417       .  A
C1942      C1943   1.516       .  S
C1943      F1947   1.383       .  S
C1943      F1948   1.383       .  S
C1943      F1949   1.384       .  S
C1946      F1950   1.381       .  S
C1946      F1951   1.382       .  S
C1946      F1952   1.384       .  S
C1953      C1954   1.402       .  A
C1953      C1958   1.412       .  A
C1953      H1960   1.083       .  S
C1954      C1955   1.418       .  A
C1955      C1962   1.519       .  S
C1955      C1956   1.409       .  A
C1956      C1957   1.404       .  A
C1956      H1961   1.083       .  S
C1957      C1958   1.424       .  A
C1958      C1959   1.518       .  S
C1959      F1963   1.385       .  S
C1959      F1964   1.380       .  S
C1959      F1965   1.381       .  S
C1962      F1966   1.384       .  S
C1962      F1967   1.382       .  S
C1962      F1968   1.384       .  S
C1969      C1970   1.403       .  A
C1969      C1974   1.401       .  A
C1969      H1976   1.084       .  S
C1970      C1971   1.416       .  A
C1971      C1978   1.517       .  S
C1971      C1972   1.404       .  A
C1972      C1973   1.412       .  A
C1972      H1977   1.078       .  S
C1973      C1974   1.423       .  A
C1974      C1975   1.516       .  S
C1975      F1979   1.385       .  S
C1975      F1980   1.383       .  S
C1975      F1981   1.375       .  S
C1978      F1982   1.376       .  S
C1978      F1983   1.381       .  S
C1978      F1984   1.385       .  S
C1985      C1986   1.402       .  A
C1985      C1990   1.397       .  A
C1985      H1992   1.085       .  S
C1986      C1987   1.413       .  A
C1987      C1994   1.516       .  S
C1987      C1988   1.407       .  A
C1988      C1989   1.406       .  A
C1988      H1993   1.078       .  S
C1989      C1990   1.415       .  A
C1990      C1991   1.515       .  S
C1991      F1995   1.384       .  S
C1991      F1996   1.377       .  S
C1991      F1997   1.383       .  S
C1994      F1998   1.381       .  S
C1994      F1999   1.382       .  S
C1994      F2000   1.385       .  S
C2001      C2002   1.400       .  A
C2001      C2006   1.401       .  A
C2001      H2008   1.085       .  S
C2002      C2003   1.411       .  A
C2003      C2010   1.518       .  S
C2003      C2004   1.412       .  A
C2004      C2005   1.418       .  A
C2004      H2009   1.077       .  S
C2005      C2006   1.430       .  A
C2006      C2007   1.523       .  S
C2007      F2011   1.383       .  S
C2007      F2012   1.374       .  S
C2007      F2013   1.384       .  S
C2010      F2014   1.382       .  S
C2010      F2015   1.384       .  S
C2010      F2016   1.385       .  S
C2017      C2018   1.396       .  A
C2017      C2022   1.413       .  A
C2017      H2024   1.082       .  S
C2018      C2019   1.416       .  A
C2019      C2026   1.517       .  S
C2019      C2020   1.407       .  A
C2020      C2021   1.407       .  A
C2020      H2025   1.074       .  S
C2021      C2022   1.445       .  A
C2022      C2023   1.534       .  S
C2023      F2027   1.380       .  S
C2023      F2028   1.385       .  S
C2023      F2029   1.378       .  S
C2026      F2030   1.383       .  S
C2026      F2031   1.384       .  S
C2026      F2032   1.383       .  S
C2033      C2034   1.405       .  A
C2033      C2038   1.412       .  A
C2033      H2040   1.084       .  S
C2034      C2035   1.429       .  A
C2035      C2042   1.522       .  S
C2035      C2036   1.408       .  A
C2036      C2037   1.402       .  A
C2036      H2041   1.082       .  S
C2037      C2038   1.422       .  A
C2038      C2039   1.513       .  S
C2039      F2043   1.384       .  S
C2039      F2044   1.382       .  S
C2039      F2045   1.378       .  S
C2042      F2046   1.383       .  S
C2042      F2047   1.383       .  S
C2042      F2048   1.385       .  S
C2049      C2050   1.408       .  A
C2049      C2054   1.406       .  A
C2049      H2056   1.082       .  S
C2050      C2051   1.413       .  A
C2051      C2058   1.518       .  S
C2051      C2052   1.409       .  A
C2052      C2053   1.417       .  A
C2052      H2057   1.074       .  S
C2053      C2054   1.424       .  A
C2054      C2055   1.522       .  S
C2055      F2059   1.377       .  S
C2055      F2060   1.381       .  S
C2055      F2061   1.385       .  S
C2058      F2062   1.382       .  S
C2058      F2063   1.383       .  S
C2058      F2064   1.385       .  S
