geometry optimzed in LAMMPS
_audit_creation_date              2020-11-30 
_audit_creation_method            'lammps2cif' 
_symmetry_space_group_name_H-M    'P1' 
_symmetry_Int_Tables_number       1 
_symmetry_cell_setting            triclinic 
loop_ 
_symmetry_equiv_pos_as_xyz 
  x,y,z 
_cell_length_a                    33.46003973 
_cell_length_b                    33.60344857408233 
_cell_length_c                    77.06690951191763 
_cell_angle_alpha                 92.45183492274919 
_cell_angle_beta                  87.90927023002943 
_cell_angle_gamma                 120.25509651669344 
loop_ 
_atom_site_label 
_atom_site_type_symbol 
_atom_site_fract_x 
_atom_site_fract_y 
_atom_site_fract_z 
_atom_site_charge 
O1          O  0.81961848  0.07595271  0.75916875    -0.57800
C2          C  0.77585141  0.94725660  0.77513640     0.74800
O3          O  0.70655198  0.01443980  0.79919117    -0.59000
C4          C  0.81266582  0.10890039  0.76319268     0.74800
C5          C  0.67849532  0.96236809  0.74564874     0.77200
Cd6        Cd  0.74813290  0.01454665  0.77164782     1.37500
O7          O  0.80047052  0.98318453  0.76648903    -0.57800
O8          O  0.72136709  0.97788493  0.74339390    -0.56600
C9          C  0.74168472  0.02619589  0.80847996     0.77200
O10         O  0.66664394  0.97495181  0.75974414    -0.59000
O11         O  0.73965326  0.94365120  0.78235450    -0.57400
O12         O  0.77314055  0.09786635  0.76964431    -0.57400
O13         O  0.77841054  0.03399017  0.80043534    -0.56600
O14         O  0.77244048  0.01266646  0.89143286    -0.57800
C15         C  0.80739673  0.97524826  0.93465946     0.74800
O16         O  0.65977335  0.94642869  0.93410675    -0.59000
C17         C  0.73783740  0.99855732  0.88167615     0.74800
C18         C  0.68673179  0.86596818  0.90732025     0.77200
Cd19       Cd  0.72699406  0.96135145  0.91553436     1.37500
O20         O  0.79568588  0.00578953  0.93476859    -0.57800
O21         O  0.70974492  0.89650513  0.89626488    -0.56600
C22         C  0.66331885  0.98531175  0.93213163     0.77200
O23         O  0.67778854  0.87964536  0.92175639    -0.59000
O24         O  0.78308239  0.93983048  0.92537369    -0.57400
O25         O  0.69938814  0.96835096  0.88787377    -0.57400
O26         O  0.69952052  0.01473709  0.92433010    -0.56600
O27         O  0.01190133  0.27066039  0.77347043    -0.57800
C28         C  0.13701900  0.31469566  0.78726918     0.74800
O29         O  0.11348335  0.42415052  0.77407795    -0.59000
C30         C  0.97916717  0.27905353  0.77314313     0.74800
C31         C  0.05592534  0.35012644  0.82295514     0.77200
Cd32       Cd  0.06977252  0.34309825  0.78599316     1.37500
O33         O  0.09677785  0.28764424  0.78162634    -0.57800
O34         O  0.05544270  0.31587595  0.81534831    -0.56600
C35         C  0.12216056  0.40973315  0.75972561     0.77200
O36         O  0.06209867  0.38259027  0.81329743    -0.59000
O37         O  0.14507697  0.35395499  0.79292050    -0.57400
O38         O  0.98811593  0.31893541  0.77843761    -0.57400
O39         O  0.10306100  0.36657640  0.75763538    -0.56600
O40         O  0.04913670  0.32931787  0.90771254    -0.57800
C41         C  0.07215140  0.29831332  0.95764490     0.74800
O42         O  0.18480035  0.40954766  0.93885933    -0.59000
C43         C  0.07239471  0.36242538  0.89752524     0.74800
C44         C  0.07491504  0.43690034  0.94467556     0.77200
Cd45       Cd  0.09985152  0.36995875  0.93312572     1.37500
O46         O  0.06013210  0.28879345  0.94191144    -0.57800
O47         O  0.04450299  0.39545090  0.94122459    -0.56600
C48         C  0.19198361  0.38603720  0.92716894     0.77200
O49         O  0.11664879  0.44615530  0.94415910    -0.59000
O50         O  0.09260094  0.34050001  0.96215819    -0.57400
O51         O  0.10668088  0.39774277  0.90405683    -0.57400
O52         O  0.15729398  0.35717855  0.91862174    -0.56600
O53         O  0.03458931  0.70382305  0.75285619    -0.57800
C54         C  0.14108168  0.77115285  0.78465848     0.74800
O55         O  0.06431124  0.62818920  0.79300592    -0.59000
C56         C  0.00020256  0.66353905  0.75114921     0.74800
C57         C  0.14958722  0.68324552  0.74484610     0.77200
Cd58       Cd  0.08155100  0.68359377  0.76930586     1.37500
O59         O  0.10847402  0.76551506  0.77509963    -0.57800
O60         O  0.13720517  0.71310225  0.74541840    -0.56600
C61         C  0.04418366  0.64476870  0.80265718     0.77200
O62         O  0.12918126  0.65089316  0.75556971    -0.59000
O63         O  0.14390152  0.73584461  0.78742860    -0.57400
O64         O  0.00510132  0.63098181  0.75637444    -0.57400
O65         O  0.03936493  0.67585779  0.79612437    -0.56600
O66         O  0.14692041  0.68791654  0.91663224    -0.57800
C67         C  0.05149266  0.58806631  0.93210419     0.74800
O68         O  0.02162655  0.68973456  0.93095210    -0.59000
C69         C  0.16372095  0.71608237  0.90440808     0.74800
C70         C  0.03339470  0.63240444  0.87659724     0.77200
Cd71       Cd  0.06663993  0.66441873  0.91140887     1.37500
O72         O  0.08781377  0.62715722  0.93271055    -0.57800
O73         O  0.06116541  0.62361853  0.88385353    -0.56600
C74         C  0.05238520  0.73213962  0.93148445     0.77200
O75         O  0.01709150  0.65288077  0.88608068    -0.59000
O76         O  0.01928409  0.58483033  0.92288202    -0.57400
O77         O  0.13501192  0.71822961  0.89481169    -0.57400
O78         O  0.08688156  0.74311978  0.92154278    -0.56600
O79         O  0.38034796  0.02232147  0.75932206    -0.57800
C80         C  0.31225966  0.93009357  0.78749583     0.74800
O81         O  0.45084682  0.95775200  0.75532101    -0.59000
C82         C  0.41566971  0.06196187  0.76054005     0.74800
C83         C  0.44262702  0.00421333  0.81105158     0.77200
Cd84       Cd  0.40621066  0.98120780  0.77624923     1.37500
O85         O  0.32428005  0.95607843  0.77463525    -0.57800
O86         O  0.42461050  0.02448244  0.80396229    -0.56600
C87         C  0.41678898  0.91816149  0.75152276     0.77200
O88         O  0.44932758  0.97675829  0.80122404    -0.59000
O89         O  0.34434666  0.92964698  0.79550156    -0.57400
O90         O  0.45058793  0.06414185  0.76749316    -0.57400
O91         O  0.37958308  0.90744750  0.75972212    -0.56600
O92         O  0.45847637  0.94498523  0.93531034    -0.57800
C93         C  0.34146001  0.87174967  0.91028588     0.74800
O94         O  0.36076749  0.00046781  0.93315877    -0.59000
C95         C  0.49345166  0.98509308  0.93546638     0.74800
C96         C  0.43489992  0.99501664  0.88584554     0.77200
Cd97       Cd  0.40664584  0.96358146  0.92091804     1.37500
O98         O  0.37253948  0.87948525  0.92100519    -0.57800
O99         O  0.43816231  0.96259305  0.89209428    -0.56600
C100        C  0.34389899  0.97351293  0.94583453     0.77200
O101        O  0.42084782  0.01583459  0.89633815    -0.59000
O102        O  0.34280457  0.90653521  0.90398591    -0.57400
O103        O  0.48720178  0.01699015  0.93044093    -0.57400
O104        O  0.35886723  0.94603981  0.94723724    -0.56600
O105        O  0.29356931  0.25524306  0.76662612    -0.57800
C106        C  0.39899445  0.22334116  0.75477328     0.74800
O107        O  0.42823859  0.36921635  0.75026113    -0.59000
C108        C  0.29266525  0.28862557  0.77461372     0.74800
C109        C  0.40909090  0.30786369  0.80029227     0.77200
Cd110      Cd  0.37933245  0.29522280  0.76505132     1.37500
O111        O  0.35841475  0.21735854  0.75452441    -0.57800
O112        O  0.37576641  0.27075882  0.79431535    -0.56600
C113        C  0.40153120  0.35882833  0.73746562     0.77200
O114        O  0.43062279  0.34022193  0.78964380    -0.59000
O115        O  0.43111720  0.26406960  0.75816347    -0.57400
O116        O  0.33145382  0.32350402  0.77817069    -0.57400
O117        O  0.36773842  0.31795924  0.73682999    -0.56600
O118        O  0.47422143  0.40579879  0.92657525    -0.57800
C119        C  0.35369899  0.36898437  0.91728356     0.74800
O120        O  0.42168095  0.29516490  0.88460770    -0.59000
C121        C  0.50927261  0.40234353  0.92238410     0.74800
C122        C  0.36586794  0.25392644  0.93389015     0.77200
Cd123      Cd  0.41618849  0.33431065  0.91226150     1.37500
O124        O  0.38528336  0.37919038  0.92806711    -0.57800
O125        O  0.40746690  0.28446779  0.93669811    -0.56600
C126        C  0.42598063  0.32679289  0.87491918     0.77200
O127        O  0.34944891  0.25763155  0.91995104    -0.59000
O128        O  0.35310760  0.34492198  0.90412572    -0.57400
O129        O  0.50127555  0.36577193  0.91403713    -0.57400
O130        O  0.42685266  0.36117179  0.88261137    -0.56600
O131        O  0.73318232  0.64544096  0.79204654    -0.57800
C132        C  0.70365898  0.67507867  0.74156714     0.74800
O133        O  0.82138816  0.77923480  0.76701620    -0.59000
C134        C  0.76845361  0.66437827  0.80166237     0.74800
C135        C  0.83816978  0.67262069  0.74991620     0.77200
Cd136      Cd  0.77369475  0.69457433  0.76660752     1.37500
O137        O  0.69477954  0.64892026  0.75430243    -0.57800
O138        O  0.79772598  0.64098763  0.75397232    -0.56600
C139        C  0.79102035  0.78522132  0.77506941     0.77200
O140        O  0.84702815  0.71366913  0.75260479    -0.59000
O141        O  0.74501113  0.70759436  0.74015574    -0.57400
O142        O  0.80550199  0.69488610  0.79463600    -0.57400
O143        O  0.75457697  0.74943974  0.77990585    -0.56600
O144        O  0.68072457  0.60338909  0.92682649    -0.57800
C145        C  0.71264949  0.71405961  0.90654912     0.74800
O146        O  0.83152281  0.69542606  0.92850856    -0.59000
C147        C  0.68539484  0.56852649  0.92448629     0.74800
C148        C  0.76563688  0.64711061  0.87625501     0.77200
Cd149      Cd  0.75305830  0.65934697  0.91311043     1.37500
O150        O  0.69468211  0.68213892  0.91738734    -0.57800
O151        O  0.72687532  0.62783606  0.88406462    -0.56600
C152        C  0.82157424  0.71949986  0.93901739     0.77200
O153        O  0.80065886  0.66965749  0.88586091    -0.59000
O154        O  0.74929989  0.72035301  0.89881274    -0.57400
O155        O  0.72451464  0.57620021  0.91860042    -0.57400
O156        O  0.78138651  0.71330328  0.93761367    -0.56600
C157        C  0.08165951  0.81601271  0.02303683     0.86500
C158        C  0.08220131  0.80594587  0.00368565    -0.53700
C159        C  0.07658583  0.83474820  0.99335945     0.09400
C160        C  0.07581680  0.87559855  0.00349829     0.20400
C161        C  0.12222504  0.86510431  0.02461609    -0.54500
C162        C  0.11951585  0.89760475  0.01529522     0.09500
C163        C  0.03865719  0.82053796  0.02645313    -0.54000
C164        C  0.03440019  0.85091992  0.01629694     0.10100
H165        H  0.08479019  0.77696136  0.99832750     0.14600
H166        H  0.07345937  0.90036879  0.99513003     0.00400
H167        H  0.15304690  0.87368910  0.03161099     0.14900
H168        H  0.01281660  0.79899779  0.03591018     0.14700
C169        C  0.07733018  0.16588331  0.00285444     0.86500
C170        C  0.11658519  0.15769397  0.99632874    -0.53700
C171        C  0.12114868  0.12531976  0.00498204     0.09400
C172        C  0.08398937  0.10308054  0.01974269     0.20400
C173        C  0.03380733  0.11896704  0.00277660    -0.54500
C174        C  0.03656511  0.08440223  0.01043772     0.09500
C175        C  0.08698181  0.17772217  0.02207283    -0.54000
C176        C  0.09097816  0.14594813  0.03113232     0.10100
H177        H  0.14044687  0.17877272  0.98625996     0.14600
H178        H  0.08643359  0.07667405  0.02703671     0.00400
H179        H  0.00345620  0.11321478  0.99595597     0.14900
H180        H  0.09185194  0.20913035  0.02844000     0.14700
C181        C  0.23939264  0.14146342  0.98876470     0.86500
C182        C  0.19150326  0.13715929  0.98741684    -0.53700
C183        C  0.16253301  0.11899625  0.00169429     0.09400
C184        C  0.18459352  0.10497188  0.01584312     0.20400
C185        C  0.25736348  0.16909094  0.00600070    -0.54500
C186        C  0.22912532  0.15107031  0.02022346     0.09500
C187        C  0.22960220  0.09335285  0.99246108    -0.54000
C188        C  0.20109501  0.07336873  0.00633263     0.10100
H189        H  0.18312695  0.15078529  0.97653652     0.14600
H190        H  0.16148920  0.08907345  0.02721029     0.00400
H191        H  0.28883893  0.20230912  0.00679291     0.14900
H192        H  0.24817359  0.07860796  0.98574135     0.14700
C193        C  0.93535541  0.98527673  0.98642184     0.86500
C194        C  0.90563331  0.98385239  0.00222234    -0.53700
C195        C  0.92311093  0.98521049  0.01792102     0.09400
C196        C  0.97254394  0.99228277  0.01662583     0.20400
C197        C  0.98205600  0.02853222  0.98888714    -0.54500
C198        C  0.00110795  0.03521876  0.00497942     0.09500
C199        C  0.94601801  0.94645636  0.98935530    -0.54000
C200        C  0.96516278  0.94947860  0.00523231     0.10100
H201        H  0.87269296  0.98231583  0.00093831     0.14600
H202        H  0.98813153  0.99522014  0.02943011     0.00400
H203        H  0.99708841  0.05395580  0.97882134     0.14900
H204        H  0.93545939  0.91680428  0.98066124     0.14700
C205        C  0.22962603  0.99849581  0.03321911     0.86500
C206        C  0.17929557  0.95882750  0.03381461    -0.53700
C207        C  0.15583308  0.94796873  0.01844670     0.09400
C208        C  0.18377090  0.98453045  0.00444154     0.20400
C209        C  0.25101096  0.98827903  0.01691533    -0.54500
C210        C  0.22817339  0.98142533  0.00183462     0.09500
C211        C  0.22457387  0.03934480  0.02861625    -0.54000
C212        C  0.20018050  0.03276748  0.01390158     0.10100
H213        H  0.16350831  0.93796699  0.04504215     0.14600
H214        H  0.16468582  0.97912463  0.99227271     0.00400
H215        H  0.28286471  0.98714646  0.01731175     0.14900
H216        H  0.24201473  0.07214520  0.03562170     0.14700
C217        C  0.91603776  0.83747104  0.02991963     0.86500
C218        C  0.93122947  0.88824219  0.02696294    -0.53700
C219        C  0.95995341  0.90681266  0.01278140     0.09400
C220        C  0.97230830  0.87266969  0.00301359     0.20400
C221        C  0.89633815  0.81287749  0.01244911    -0.54500
C222        C  0.92441417  0.83108215  0.99829650     0.09500
C223        C  0.96190304  0.83866463  0.03135678    -0.54000
C224        C  0.99141907  0.85514862  0.01731842     0.10100
H225        H  0.91893037  0.90782553  0.03443874     0.14600
H226        H  0.99557942  0.88740863  0.99154527     0.00400
H227        H  0.86131634  0.78377199  0.01129787     0.14900
H228        H  0.96947901  0.82664434  0.04292615     0.14700
O229        O  0.38828317  0.97785835  0.13454911    -0.57800
C230        C  0.35937485  0.01314850  0.08597218     0.74800
O231        O  0.48412722  0.11244594  0.10582864    -0.59000
C232        C  0.41911812  0.00027229  0.14580347     0.74800
C233        C  0.49527193  0.00231372  0.09438808     0.77200
Cd234      Cd  0.43204503  0.02924407  0.10996022     1.37500
O235        O  0.40167817  0.04199424  0.08358886    -0.57800
O236        O  0.45538335  0.97222072  0.09963839    -0.56600
C237        C  0.46108578  0.12426473  0.11598916     0.77200
O238        O  0.50456229  0.04367417  0.09592336    -0.59000
O239        O  0.35006031  0.98864017  0.09921454    -0.57400
O240        O  0.45588378  0.03458017  0.14020039    -0.57400
O241        O  0.42737965  0.09244642  0.12413227    -0.56600
O242        O  0.30230980  0.91560677  0.27136014    -0.57800
C243        C  0.32256220  0.02499318  0.25266971     0.74800
O244        O  0.44927839  0.00930994  0.27298691    -0.59000
C245        C  0.30889459  0.88258306  0.26727006     0.74800
C246        C  0.39390101  0.97345298  0.22042241     0.77200
Cd247      Cd  0.37175350  0.97662586  0.25724649     1.37500
O248        O  0.31474649  0.00031947  0.26571094    -0.57800
O249        O  0.35322685  0.95044341  0.22658145    -0.56600
C250        C  0.44303324  0.03727017  0.28269801     0.77200
O251        O  0.42537784  0.99560962  0.23149958    -0.59000
O252        O  0.35184038  0.02585850  0.24161679    -0.57400
O253        O  0.34755350  0.89347635  0.26003852    -0.57400
O254        O  0.40513961  0.03589829  0.28061241    -0.56600
O255        O  0.10751668  0.70483260  0.26449355    -0.57800
C256        C  0.00283493  0.68182904  0.24425915     0.74800
O257        O  0.04408628  0.58814460  0.21967346    -0.59000
C258        C  0.14490797  0.70603533  0.26012030     0.74800
C259        C  0.00190315  0.55798433  0.26910895     0.77200
Cd260      Cd  0.05591901  0.63675717  0.24669268     1.37500
O261        O  0.02509623  0.68582327  0.25777375    -0.57800
O262        O  0.04516308  0.57490668  0.26693841    -0.56600
C263        C  0.06800557  0.62211354  0.20999254     0.77200
O264        O  0.98405941  0.57525249  0.26006017    -0.59000
O265        O  0.00565508  0.65728871  0.23194217    -0.57400
O266        O  0.14091649  0.67250110  0.25062374    -0.57400
O267        O  0.08887557  0.66107662  0.21767512    -0.56600
O268        O  0.95690875  0.56723806  0.09380577    -0.57800
C269        C  0.07505175  0.54956056  0.08806767     0.74800
O270        O  0.08832168  0.69056579  0.08689668    -0.59000
C271        C  0.94975199  0.59540783  0.10300094     0.74800
C272        C  0.05973756  0.61609657  0.13475026     0.77200
Cd273      Cd  0.04182447  0.61103105  0.09827644     1.37500
O274        O  0.03277754  0.53775410  0.08669672    -0.57800
O275        O  0.02789352  0.58041092  0.12728558    -0.56600
C276        C  0.06860027  0.68004153  0.07228238     0.77200
O277        O  0.08480652  0.64993655  0.12507276    -0.59000
O278        O  0.10232701  0.59096901  0.09277864    -0.57400
O279        O  0.98472935  0.62870137  0.11016265    -0.57400
O280        O  0.03972464  0.63777536  0.06960636    -0.56600
O281        O  0.78429711  0.08542200  0.08474916    -0.57800
C282        C  0.65746736  0.98948023  0.08316645     0.74800
O283        O  0.76065090  0.96074000  0.07267515    -0.59000
C284        C  0.80519814  0.10340770  0.09883575     0.74800
C285        C  0.72226619  0.98205855  0.13169254     0.77200
Cd286      Cd  0.74455937  0.00663574  0.09570805     1.37500
O287        O  0.69509647  0.02580208  0.07981486    -0.57800
O288        O  0.71852810  0.01358865  0.12497126    -0.56600
C289        C  0.80414855  0.98238379  0.07466615     0.77200
O290        O  0.73472935  0.95943866  0.12148141    -0.59000
O291        O  0.66100676  0.95800128  0.09020928    -0.57400
O292        O  0.79581402  0.07671910  0.11131700    -0.57400
O293        O  0.81854203  0.01104074  0.08727385    -0.56600
O294        O  0.82351950  0.03504632  0.25153540    -0.57800
C295        C  0.72713556  0.92664683  0.25768850     0.74800
O296        O  0.69249966  0.02475513  0.26309865    -0.59000
C297        C  0.84366219  0.06544514  0.24020883     0.74800
C298        C  0.71999427  0.98802632  0.20649049     0.77200
Cd299      Cd  0.74538004  0.01177319  0.24273087     1.37500
O300        O  0.76070660  0.96524574  0.26244428    -0.57800
O301        O  0.75089375  0.98377318  0.21364325    -0.56600
C302        C  0.71729883  0.06821842  0.26453231     0.77200
O303        O  0.69867720  0.00271313  0.21632627    -0.59000
O304        O  0.69922194  0.92803136  0.24738679    -0.57400
O305        O  0.81807969  0.07031200  0.22981650    -0.57400
O306        O  0.75345158  0.08573340  0.25507732    -0.56600
O307        O  0.06761964  0.35733038  0.08819509    -0.57800
C308        C  0.98147804  0.25931936  0.10508862     0.74800
O309        O  0.12986896  0.29180191  0.08970304    -0.59000
C310        C  0.10148624  0.39611445  0.09238989     0.74800
C311        C  0.09358492  0.33475983  0.14554325     0.77200
Cd312      Cd  0.07924323  0.31153722  0.10860859     1.37500
O313        O  0.00809676  0.28068049  0.09255124    -0.57800
O314        O  0.06567959  0.34007025  0.13672852    -0.56600
C315        C  0.10473057  0.24843053  0.09096020     0.77200
O316        O  0.11679733  0.31969533  0.13709531    -0.59000
O317        O  0.00047522  0.26308404  0.11945367    -0.57400
O318        O  0.12961476  0.39570093  0.10290106    -0.57400
O319        O  0.07166581  0.23508757  0.10186797    -0.56600
O320        O  0.11467906  0.30853053  0.27652498    -0.57800
C321        C  0.01403255  0.22570384  0.24772177     0.74800
O322        O  0.02721554  0.36192938  0.27095795    -0.59000
C323        C  0.15245505  0.34454265  0.27309684     0.74800
C324        C  0.09156702  0.34452167  0.22069875     0.77200
Cd325      Cd  0.06739305  0.32062124  0.25650742     1.37500
O326        O  0.04365759  0.23960121  0.25961646    -0.57800
O327        O  0.09852505  0.31605172  0.22828513    -0.56600
C328        C  0.99609962  0.32522672  0.27797233     0.77200
O329        O  0.07508759  0.36516914  0.23008127    -0.59000
O330        O  0.01215214  0.25617504  0.23926932    -0.57400
O331        O  0.14975135  0.37339848  0.26388673    -0.57400
O332        O  0.99962720  0.29003524  0.27491607    -0.56600
O333        O  0.45603053  0.37617027  0.08934701    -0.57800
C334        C  0.43391386  0.27521913  0.11078529     0.74800
O335        O  0.33462943  0.30690635  0.13139480    -0.59000
C336        C  0.45235314  0.41173383  0.09160042     0.74800
C337        C  0.31079451  0.26581644  0.08124636     0.77200
Cd338      Cd  0.38524742  0.32346819  0.10515938     1.37500
O339        O  0.43398646  0.29053738  0.09605956    -0.57800
O340        O  0.32571950  0.30867476  0.08313560    -0.56600
C341        C  0.36627314  0.33701666  0.14102324     0.77200
O342        O  0.32672572  0.24926562  0.09156202    -0.59000
O343        O  0.41234371  0.28349509  0.12285244    -0.57400
O344        O  0.41516830  0.40566372  0.09887747    -0.57400
O345        O  0.40388805  0.36420645  0.13341993    -0.56600
O346        O  0.30161607  0.20216475  0.26067883    -0.57800
C347        C  0.30297519  0.31542319  0.26828555     0.74800
O348        O  0.42332155  0.32294313  0.26837513    -0.59000
C349        C  0.30636500  0.18114396  0.24741790     0.74800
C350        C  0.36043380  0.31041605  0.21464336     0.77200
Cd351      Cd  0.35460744  0.27933549  0.24966612     1.37500
O352        O  0.29232916  0.27368373  0.26912581    -0.57800
O353        O  0.32269957  0.28249248  0.22201773    -0.56600
C354        C  0.43604954  0.29320457  0.26763213     0.77200
O355        O  0.39650131  0.32450243  0.22354916    -0.59000
O356        O  0.33974946  0.34132413  0.25989427    -0.57400
O357        O  0.32931218  0.20570656  0.23472561    -0.57400
O358        O  0.41302771  0.25875935  0.25770925    -0.56600
O359        O  0.70568711  0.64610601  0.22560402    -0.57800
C360        C  0.74158818  0.62131564  0.27385468     0.74800
O361        O  0.84134282  0.73344536  0.25835397    -0.59000
C362        C  0.72557062  0.67757912  0.21452789     0.74800
C363        C  0.74038432  0.76421860  0.26154052     0.77200
Cd364      Cd  0.76009352  0.69328099  0.24949725     1.37500
O365        O  0.75039756  0.61759530  0.25796730    -0.57800
O366        O  0.70804009  0.72311349  0.25874325    -0.56600
C367        C  0.85515753  0.71940850  0.24523821     0.77200
O368        O  0.78128724  0.77133244  0.25998692    -0.59000
O369        O  0.73525821  0.65470744  0.27776219    -0.57400
O370        O  0.75866551  0.71543935  0.22008040    -0.57400
O371        O  0.82602506  0.69813198  0.23343623    -0.56600
O372        O  0.66020204  0.56846337  0.08944840    -0.57800
C373        C  0.78594536  0.61044990  0.10654975     0.74800
O374        O  0.76149275  0.72152537  0.09278757    -0.59000
C375        C  0.62691959  0.57608901  0.09098785     0.74800
C376        C  0.70777158  0.65379778  0.13989972     0.77200
Cd377      Cd  0.71916934  0.63963754  0.10319847     1.37500
O378        O  0.75025297  0.58664300  0.09749744    -0.57800
O379        O  0.69746179  0.61471870  0.13327426    -0.56600
C380        C  0.77509732  0.71045147  0.07880680     0.77200
O381        O  0.72085277  0.68620075  0.12932023    -0.59000
O382        O  0.78908803  0.64586179  0.11422136    -0.57400
O383        O  0.63643777  0.61510651  0.09752598    -0.57400
O384        O  0.75760538  0.66783669  0.07560147    -0.56600
C385        C  0.56715767  0.18445112  0.36886629     0.86500
C386        C  0.57800628  0.23075140  0.36208254    -0.53700
C387        C  0.60086339  0.24223292  0.34646745     0.09400
C388        C  0.60999226  0.20395096  0.33841927     0.20400
C389        C  0.54059728  0.14919772  0.35421569    -0.54500
C390        C  0.56139894  0.15967879  0.33822017     0.09500
C391        C  0.61442305  0.18717732  0.36847238    -0.54000
C392        C  0.63673186  0.19544889  0.35262848     0.10100
H393        H  0.56460159  0.25060104  0.36833452     0.14600
H394        H  0.62745649  0.21204982  0.32546682     0.00400
H395        H  0.50668071  0.11899229  0.35617287     0.14900
H396        H  0.62894577  0.18104817  0.37958246     0.14700
C397        C  0.24411095  0.51369870  0.70184598     0.86500
C398        C  0.25360229  0.56140549  0.69715896    -0.53700
C399        C  0.27864842  0.57770409  0.68211124     0.09400
C400        C  0.29184952  0.54323964  0.67275750     0.20400
C401        C  0.22043489  0.48379421  0.68569991    -0.54500
C402        C  0.24503993  0.49724605  0.67048593     0.09500
C403        C  0.29226012  0.51901515  0.70200046    -0.54000
C404        C  0.31743131  0.53262879  0.68675491     0.10100
H405        H  0.23716764  0.57844768  0.70370197     0.14600
H406        H  0.31182986  0.55571847  0.66042374     0.00400
H407        H  0.18589790  0.45388256  0.68643967     0.14900
H408        H  0.30441018  0.51101119  0.71347054     0.14700
C409        C  0.74098118  0.49451347  0.32500738     0.86500
C410        C  0.69666573  0.44835454  0.32255607    -0.53700
C411        C  0.69044129  0.41373451  0.33314000     0.09400
C412        C  0.73053749  0.43029006  0.34616814     0.20400
C413        C  0.73944712  0.50660532  0.34437885    -0.54500
C414        C  0.73320161  0.47338525  0.35546505     0.09500
C415        C  0.78012233  0.48321864  0.32367348    -0.54000
C416        C  0.77573206  0.45009472  0.33468208     0.10100
H417        H  0.67141594  0.44471878  0.31329091     0.14600
H418        H  0.72606705  0.40329313  0.35513527     0.00400
H419        H  0.74165249  0.53799083  0.34957566     0.14900
H420        H  0.81220348  0.50524824  0.31675741     0.14700
C421        C  0.57387872  0.31438357  0.31731471     0.86500
C422        C  0.55104365  0.32230390  0.33368047    -0.53700
C423        C  0.57493956  0.33224807  0.34868676     0.09400
C424        C  0.62048873  0.33112163  0.34602415     0.20400
C425        C  0.62303302  0.35491997  0.31641548    -0.54500
C426        C  0.64733341  0.36663795  0.33148233     0.09500
C427        C  0.58133989  0.27463254  0.32209832    -0.54000
C428        C  0.60494916  0.28239653  0.33721353     0.10100
H429        H  0.51712485  0.31912470  0.33329227     0.14600
H430        H  0.64015570  0.33826193  0.35815926     0.00400
H431        H  0.63751867  0.37285902  0.30442669     0.14900
H432        H  0.56692233  0.24188854  0.31506793     0.14700
C433        C  0.88791920  0.48793389  0.35861520     0.86500
C434        C  0.87093914  0.43828530  0.36318137    -0.53700
C435        C  0.85179642  0.40563287  0.34998076     0.09400
C436        C  0.84367209  0.42649296  0.33368695     0.20400
C437        C  0.91535446  0.49620640  0.34158851    -0.54500
C438        C  0.89316539  0.46509195  0.32839669     0.09500
C439        C  0.84370766  0.48643727  0.35338907    -0.54000
C440        C  0.81912409  0.45354179  0.34090115     0.10100
H441        H  0.87547605  0.43090352  0.37626955     0.14600
H442        H  0.82499653  0.40083483  0.32311926     0.00400
H443        H  0.94978464  0.52597449  0.33999381     0.14900
H444        H  0.83311684  0.51031841  0.35829563     0.14700
C445        C  0.56640540  0.66579863  0.69345405     0.86500
C446        C  0.56488067  0.70965552  0.69283306    -0.53700
C447        C  0.53414551  0.70952577  0.68132815     0.09400
C448        C  0.50969681  0.66320699  0.66994673     0.20400
C449        C  0.51550822  0.63027882  0.69648289    -0.54500
C450        C  0.48585764  0.62326341  0.68328980     0.09500
C451        C  0.57831988  0.65759651  0.67487028    -0.54000
C452        C  0.55068607  0.65817137  0.66247603     0.10100
H453        H  0.58770872  0.73864879  0.70108690     0.14600
H454        H  0.48613642  0.66241964  0.65999711     0.00400
H455        H  0.50295534  0.61061889  0.70814891     0.14900
H456        H  0.60824886  0.65396213  0.67162729     0.14700
C457        C  0.55810677  0.83167059  0.69171968     0.86500
C458        C  0.54600232  0.78269722  0.69509790    -0.53700
C459        C  0.52831501  0.75159450  0.68137409     0.09400
C460        C  0.51738010  0.77254328  0.66576553     0.20400
C461        C  0.58542898  0.84449195  0.67443842    -0.54500
C462        C  0.56546018  0.81390335  0.66084253     0.09500
C463        C  0.51155216  0.82586075  0.68732606    -0.54000
C464        C  0.48946022  0.79546420  0.67389161     0.10100
H465        H  0.55318106  0.77455026  0.70765281     0.14600
H466        H  0.49998694  0.74743407  0.65491316     0.00400
H467        H  0.61885695  0.87576216  0.67318252     0.14900
H468        H  0.49672174  0.84390729  0.69410881     0.14700
C469        C  0.40686116  0.49188831  0.68910071     0.86500
C470        C  0.40321364  0.47999132  0.66987275    -0.53700
C471        C  0.39769861  0.50919698  0.65974473     0.09400
C472        C  0.39973357  0.55155054  0.67016209     0.20400
C473        C  0.44851569  0.53990823  0.68960981    -0.54500
C474        C  0.44585818  0.57331890  0.68083150     0.09500
C475        C  0.36526595  0.49757873  0.69373722    -0.54000
C476        C  0.36018156  0.52813592  0.68407702     0.10100
H477        H  0.40269662  0.44923251  0.66458468     0.14600
H478        H  0.39641021  0.57618327  0.66204344     0.00400
H479        H  0.48043989  0.54568536  0.69498241     0.14900
H480        H  0.34033729  0.47615689  0.70349445     0.14700
C481        C  0.24191327  0.64559452  0.65506220     0.86500
C482        C  0.22408997  0.65785098  0.67186162    -0.53700
C483        C  0.25158346  0.66885185  0.68593966     0.09400
C484        C  0.29569931  0.66610018  0.68198983     0.20400
C485        C  0.29135567  0.68539727  0.65240461    -0.54500
C486        C  0.31903124  0.69960124  0.66673819     0.09500
C487        C  0.25000755  0.60657591  0.65973955    -0.54000
C488        C  0.27787257  0.61638559  0.67370583     0.10100
H489        H  0.19148789  0.65766348  0.67250358     0.14600
H490        H  0.31805971  0.67444050  0.69343727     0.00400
H491        H  0.30394284  0.70087819  0.63990319     0.14900
H492        H  0.23313939  0.57303105  0.65324693     0.14700
C493        C  0.40319191  0.82682959  0.65668421     0.86500
C494        C  0.44566671  0.82013481  0.65602691    -0.53700
C495        C  0.44483461  0.79031591  0.66797763     0.09400
C496        C  0.40135991  0.77168852  0.68023286     0.20400
C497        C  0.36143037  0.77927131  0.65589525    -0.54500
C498        C  0.35940106  0.74873813  0.66759111     0.09500
C499        C  0.40308940  0.84365643  0.67532889    -0.54000
C500        C  0.40363644  0.81686132  0.68784201     0.10100
H501        H  0.47762386  0.84493712  0.64976246     0.14600
H502        H  0.40049642  0.74848406  0.69025302     0.00400
H503        H  0.33452577  0.77180314  0.64674404     0.14900
H504        H  0.40648183  0.87686768  0.67862910     0.14700
C505        C  0.71665320  0.14359496  0.35535796     0.86500
C506        C  0.70923168  0.12908192  0.33634248    -0.53700
C507        C  0.70814556  0.16041313  0.32579813     0.09400
C508        C  0.71561712  0.20567986  0.33583102     0.20400
C509        C  0.76169243  0.18899796  0.35459492    -0.54500
C510        C  0.76176536  0.22416964  0.34624037     0.09500
C511        C  0.67881255  0.15485173  0.36014438    -0.54000
C512        C  0.67654648  0.18632935  0.35000154     0.10100
H513        H  0.70617669  0.09692439  0.33139388     0.14600
H514        H  0.71494951  0.23151765  0.32753533     0.00400
H515        H  0.79296348  0.19237534  0.35977596     0.14900
H516        H  0.65358670  0.13582250  0.37022625     0.14700
C517        C  0.87616900  0.31235233  0.36559873     0.86500
C518        C  0.82521637  0.27669658  0.36566655    -0.53700
C519        C  0.80096829  0.27317672  0.35102562     0.09400
C520        C  0.83032728  0.31561978  0.33907352     0.20400
C521        C  0.89589429  0.30847935  0.34779618    -0.54500
C522        C  0.87310052  0.31089920  0.33391432     0.09500
C523        C  0.87653533  0.35719233  0.36459551    -0.54000
C524        C  0.85133239  0.36020072  0.35148218     0.10100
H525        H  0.81080745  0.25267759  0.37621629     0.14600
H526        H  0.81132638  0.31711837  0.32784542     0.00400
H527        H  0.92718028  0.30635165  0.34623728     0.14900
H528        H  0.90013235  0.38616330  0.37255015     0.14700
O529        O  0.42012663  0.29924809  0.59467370    -0.57800
C530        C  0.48674955  0.39474925  0.56919896     0.74800
O531        O  0.33892522  0.32164855  0.55212389    -0.59000
C532        C  0.38435209  0.25981225  0.59470239     0.74800
C533        C  0.37517478  0.40172626  0.59893577     0.77200
Cd534      Cd  0.39114602  0.33689527  0.57721520     1.37500
O535        O  0.47348472  0.36975587  0.58239930    -0.57800
O536        O  0.40553267  0.41389904  0.58702079    -0.56600
C537        C  0.35725560  0.30342209  0.54244229     0.77200
O538        O  0.34807900  0.35850463  0.59993644    -0.59000
O539        O  0.45537119  0.39131436  0.55949777    -0.57400
O540        O  0.34865300  0.25679577  0.58811442    -0.57400
O541        O  0.38739289  0.29767542  0.54944209    -0.56600
O542        O  0.34247776  0.35170048  0.42074267    -0.57800
C543        C  0.46126647  0.42882223  0.44541677     0.74800
O544        O  0.38665381  0.28613913  0.45857591    -0.59000
C545        C  0.30975232  0.31023769  0.42036073     0.74800
C546        C  0.46013834  0.33215412  0.40706369     0.77200
Cd547      Cd  0.39855259  0.33715759  0.43377209     1.37500
O548        O  0.42793095  0.42008391  0.43570037    -0.57800
O549        O  0.44133224  0.35652468  0.40628872    -0.56600
C550        C  0.36710539  0.30341097  0.46818506     0.77200
O551        O  0.44780728  0.30588142  0.41997349    -0.59000
O552        O  0.46378742  0.39468724  0.45029580    -0.57400
O553        O  0.31972741  0.27996267  0.42421913    -0.57400
O554        O  0.36113744  0.33353564  0.46138371    -0.56600
O555        O  0.10286000  0.65343957  0.59675531    -0.57800
C556        C  0.02876802  0.63900755  0.55369099     0.74800
O557        O  0.97280427  0.53468792  0.59917500    -0.59000
C558        C  0.09758719  0.62878659  0.60958963     0.74800
C559        C  0.96002967  0.64746536  0.60432948     0.77200
Cd560      Cd  0.01860996  0.61415248  0.58965397     1.37500
O561        O  0.06253741  0.65778224  0.56399571    -0.57800
O562        O  0.00126746  0.67602848  0.59982490    -0.56600
C563        C  0.98203280  0.51723226  0.58586910     0.77200
O564        O  0.94861442  0.60550374  0.60322771    -0.59000
O565        O  0.99024558  0.60970984  0.56026047    -0.57400
O566        O  0.05621878  0.60053822  0.61379152    -0.57400
O567        O  0.00407883  0.54429407  0.57366628    -0.56600
O568        O  0.12598250  0.62987349  0.43449052    -0.57800
C569        C  0.13650962  0.75264338  0.43360142     0.74800
O570        O  0.99688689  0.62816278  0.42684984    -0.59000
C571        C  0.10626692  0.59573216  0.44433666     0.74800
C572        C  0.05192679  0.65917114  0.47904976     0.77200
Cd573      Cd  0.07276132  0.65820742  0.44240286     1.37500
O574        O  0.14619334  0.72088867  0.43184510    -0.57800
O575        O  0.09266532  0.67599339  0.47290287    -0.56600
C576        C  0.00765210  0.60829888  0.41472932     0.77200
O577        O  0.01979818  0.64358464  0.46801834    -0.59000
O578        O  0.09595352  0.74078865  0.43904012    -0.57400
O579        O  0.07355323  0.59270905  0.45401178    -0.57400
O580        O  0.04747868  0.61327553  0.41549909    -0.56600
O581        O  0.33608766  0.92586052  0.42697036    -0.57800
C582        C  0.44617234  0.95117210  0.44309572     0.74800
O583        O  0.40611301  0.05268040  0.42151895    -0.59000
C584        C  0.30017641  0.92775180  0.43111037     0.74800
C585        C  0.37777017  0.00873258  0.48001045     0.77200
Cd586      Cd  0.39036891  0.99410602  0.44371209     1.37500
O587        O  0.43205370  0.95868268  0.42929169    -0.57800
O588        O  0.36691882  0.96967335  0.47332728    -0.56600
C589        C  0.44875922  0.07761533  0.42485185     0.77200
O590        O  0.39214192  0.04154423  0.46957655    -0.59000
O591        O  0.43291481  0.96210349  0.45713158    -0.57400
O592        O  0.30648353  0.96343897  0.43967686    -0.57400
O593        O  0.46248631  0.06557477  0.43758049    -0.56600
O594        O  0.37148356  0.99329861  0.56489642    -0.57800
C595        C  0.39776211  0.95329133  0.60850956     0.74800
O596        O  0.50370207  0.06446533  0.60077381    -0.59000
C597        C  0.39466596  0.02458625  0.55406172     0.74800
C598        C  0.40219295  0.10060260  0.60101691     0.77200
Cd599      Cd  0.42621363  0.03368712  0.58865518     1.37500
O600        O  0.40653911  0.95324316  0.59241445    -0.57800
O601        O  0.37133214  0.05954142  0.59740563    -0.56600
C602        C  0.52148674  0.05826374  0.58687218     0.77200
O603        O  0.44353177  0.10870542  0.60073390    -0.59000
O604        O  0.39744968  0.98857796  0.61476263    -0.57400
O605        O  0.43132298  0.05934073  0.55955253    -0.57400
O606        O  0.49653802  0.04546600  0.57356310    -0.56600
O607        O  0.00982855  0.34540779  0.59933983    -0.57800
C608        C  0.99647775  0.22812193  0.59831197     0.74800
O609        O  0.10699522  0.31549618  0.56099640    -0.59000
C610        C  0.01601094  0.37047851  0.58656059     0.74800
C611        C  0.14292135  0.38016425  0.61119237     0.77200
Cd612      Cd  0.06429615  0.32057588  0.58806017     1.37500
O613        O  0.99424363  0.26346636  0.60310235    -0.57800
O614        O  0.11625704  0.33740911  0.61341325    -0.56600
C615        C  0.07298011  0.30378993  0.55110681     0.77200
O616        O  0.13634229  0.39489776  0.59738375    -0.59000
O617        O  0.03361014  0.23585378  0.59045524    -0.57400
O618        O  0.04513685  0.37301159  0.57511511    -0.57400
O619        O  0.03647473  0.29858056  0.55849819    -0.56600
O620        O  0.03677901  0.28016180  0.46616761    -0.57800
C621        C  0.99067750  0.30562644  0.41992709     0.74800
O622        O  0.11564895  0.40926109  0.42907740    -0.59000
C623        C  0.06981474  0.30638947  0.47617622     0.74800
C624        C  0.13940518  0.30821555  0.42537353     0.77200
Cd625      Cd  0.07221586  0.33000324  0.44022335     1.37500
O626        O  0.01828829  0.29156493  0.41536282    -0.57800
O627        O  0.10365270  0.27822333  0.43333143    -0.56600
C628        C  0.10695338  0.42716683  0.44242096     0.77200
O629        O  0.14202019  0.34666229  0.42340136    -0.59000
O630        O  0.99717277  0.32486808  0.43480847    -0.57400
O631        O  0.10291725  0.34155786  0.46930211    -0.57400
O632        O  0.08446541  0.40033183  0.45457777    -0.56600
O633        O  0.64379929  0.62419957  0.43749390    -0.57800
C634        C  0.74123802  0.72729683  0.41792403     0.74800
O635        O  0.77367955  0.65535084  0.46132714    -0.59000
C636        C  0.63267946  0.59139847  0.44761924     0.74800
C637        C  0.72941385  0.57687985  0.41362463     0.77200
Cd638      Cd  0.72527717  0.64702774  0.43589257     1.37500
O639        O  0.70289938  0.69030718  0.41851128    -0.57800
O640        O  0.69482274  0.58230942  0.41527195    -0.56600
C641        C  0.75876096  0.67735991  0.47067627     0.77200
O642        O  0.76512168  0.60612153  0.42187967    -0.59000
O643        O  0.77538851  0.72591629  0.42389654    -0.57400
O644        O  0.66518892  0.58649137  0.45297543    -0.41200
O645        O  0.73239387  0.68780922  0.46329170    -0.56600
O646        O  0.76754061  0.62748541  0.59788763    -0.57800
C647        C  0.65990006  0.55766582  0.56888223     0.74800
O648        O  0.68874291  0.69515464  0.59506038    -0.59000
C649        C  0.80410042  0.66641793  0.59865957     0.74800
C650        C  0.75547059  0.67809698  0.54523017     0.77200
Cd651      Cd  0.72351987  0.64933353  0.58018365     1.37500
O652        O  0.69253950  0.56595845  0.57893897    -0.57800
O653        O  0.76017978  0.64799814  0.55266629    -0.56600
C654        C  0.65900552  0.66063335  0.60355191     0.77200
O655        O  0.73823333  0.69818612  0.55450131    -0.59000
O656        O  0.65870678  0.59213920  0.56352066    -0.57400
O657        O  0.80242242  0.69929963  0.59193950    -0.57400
O658        O  0.66111860  0.62438978  0.60118381    -0.56600
O659        O  0.61121275  0.90329515  0.42845614    -0.57800
C660        C  0.72494589  0.88698498  0.41887231     0.74800
O661        O  0.73584933  0.02933521  0.42077199    -0.59000
C662        C  0.60242772  0.92675479  0.43963815     0.74800
C663        C  0.72048871  0.95633574  0.46848874     0.77200
Cd664      Cd  0.69584364  0.94951588  0.43249063     1.37500
O665        O  0.68294671  0.87661497  0.41996181    -0.57800
O666        O  0.69052457  0.91946999  0.46103970    -0.56600
C667        C  0.71314475  0.01714247  0.40678069     0.77200
O668        O  0.74172335  0.99124823  0.45890700    -0.59000
O669        O  0.75462651  0.92806194  0.42321413    -0.57400
O670        O  0.63644524  0.95854766  0.44774286    -0.57400
O671        O  0.68576105  0.97442748  0.40462387    -0.56600
O672        O  0.78589130  0.05746234  0.59577786    -0.57800
C673        C  0.67262989  0.02388842  0.58396090     0.74800
O674        O  0.72424119  0.93768944  0.55340933    -0.59000
C675        C  0.82297150  0.05679711  0.59294508     0.74800
C676        C  0.67927341  0.90333000  0.60189381     0.77200
Cd677      Cd  0.73222328  0.98504936  0.58067384     1.37500
O678        O  0.68959956  0.01658012  0.59700211    -0.57800
O679        O  0.72284004  0.92858095  0.60310715    -0.56600
C680        C  0.74053018  0.97163463  0.54340328     0.77200
O681        O  0.66147440  0.91299770  0.58975274    -0.59000
O682        O  0.68425143  0.01413522  0.56930964    -0.57400
O683        O  0.81840187  0.02070363  0.58515521    -0.57400
O684        O  0.75487996  0.01063419  0.55077030    -0.56600
C685        C  0.76303467  0.99959586  0.49532090    -0.26300
C686        C  0.72882487  0.95838363  0.48750084    -0.14400
C687        C  0.70152581  0.92024984  0.49817121     0.36300
C688        C  0.70771920  0.92456234  0.51623209    -0.25700
C689        C  0.74045693  0.96634984  0.52410959    -0.15000
C690        C  0.76938235  0.00390178  0.51343704     0.37300
N691        N  0.80493754  0.04644652  0.52102629    -0.89200
H692        H  0.78456521  0.02888085  0.48731265     0.18500
H693        H  0.68527324  0.89546475  0.52419691     0.18400
N694        N  0.66641472  0.87725112  0.49086719    -0.88300
H695        H  0.82284587  0.07069745  0.51146409     0.35800
H696        H  0.82894291  0.03967046  0.52651631     0.40900
H697        H  0.63462754  0.86955080  0.49663037     0.40500
H698        H  0.67359770  0.85159542  0.49406735     0.35400
C699        C  0.78699819  0.66478638  0.49825798    -0.26300
C700        C  0.76801358  0.68709772  0.48957712    -0.14400
C701        C  0.75220560  0.71317728  0.49948877     0.36300
C702        C  0.75139353  0.71231853  0.51773868    -0.25700
C703        C  0.76638072  0.68642495  0.52638040    -0.15000
C704        C  0.78644456  0.66428377  0.51647333     0.37300
N705        N  0.80495093  0.63984224  0.52476845    -0.89200
H706        H  0.80005465  0.64536894  0.49091588     0.18500
H707        H  0.73682404  0.73018841  0.52519600     0.18400
N708        N  0.73530187  0.73902404  0.49104801    -0.88300
H709        H  0.83966377  0.65403647  0.52091886     0.35800
H710        H  0.78711381  0.60549563  0.52030394     0.40900
H711        H  0.76320631  0.76523744  0.48429886     0.40500
H712        H  0.72396938  0.75526695  0.50018142     0.35400
C713        C  0.78108038  0.81296408  0.41867722    -0.26300
C714        C  0.74409325  0.77072499  0.41263479    -0.14400
C715        C  0.70641437  0.77081679  0.40478164     0.36300
C716        C  0.70373313  0.81096215  0.40536968    -0.25700
C717        C  0.73720200  0.85128160  0.41384851    -0.15000
C718        C  0.77792048  0.85329093  0.41953341     0.37300
N719        N  0.81444387  0.89501158  0.42723666    -0.89200
H720        H  0.81064851  0.81370440  0.42431281     0.18500
H721        H  0.67323676  0.80948677  0.40025875     0.18400
N722        N  0.66923866  0.73049448  0.39672482    -0.88300
H723        H  0.84268272  0.89112065  0.42991380     0.35800
H724        H  0.80214403  0.90052723  0.43923305     0.40900
H725        H  0.64930741  0.70678207  0.40617951     0.40500
H726        H  0.68312741  0.71598269  0.38790132     0.35400
C727        C  0.91519316  0.17704023  0.60823591    -0.26300
C728        C  0.95558785  0.18089251  0.60046375    -0.14400
C729        C  0.95334901  0.14093328  0.59262253     0.36300
C730        C  0.91009867  0.09969866  0.59126488    -0.25700
C731        C  0.86899601  0.09739594  0.59759795    -0.15000
C732        C  0.87231022  0.13624344  0.60680295     0.37300
N733        N  0.83193785  0.13533574  0.61418056    -0.89200
H734        H  0.91611039  0.20682823  0.61464179     0.18500
H735        H  0.90825662  0.06995271  0.58446292     0.18400
N736        N  0.99437434  0.14276698  0.58533525    -0.88300
H737        H  0.82859070  0.16129414  0.60858206     0.35800
H738        H  0.83710180  0.14300881  0.62748578     0.40900
H739        H  0.98659042  0.11089267  0.57966582     0.40500
H740        H  0.01654712  0.14886300  0.59559480     0.35400
C741        C  0.03261254  0.27074959  0.52311486    -0.26300
C742        C  0.07461144  0.29797883  0.53185184    -0.14400
C743        C  0.11549080  0.32332706  0.52183047     0.36300
C744        C  0.11301155  0.32321082  0.50370455    -0.25700
C745        C  0.07055955  0.29845513  0.49503981    -0.15000
C746        C  0.03009866  0.27063894  0.50497828     0.37300
N747        N  0.98562841  0.24363674  0.49723773    -0.89200
H748        H  0.00087881  0.25064580  0.53051451     0.18500
H749        H  0.14463448  0.34427727  0.49638679     0.18400
N750        N  0.15965677  0.35156265  0.52964841    -0.88300
H751        H  0.98696169  0.21996169  0.48832703     0.35800
H752        H  0.97788320  0.26551662  0.49073637     0.40900
H753        H  0.16727198  0.33061242  0.53683898     0.40500
H754        H  0.15786589  0.37600697  0.53798792     0.35400
C755        C  0.58181664  0.05164212  0.60187791    -0.26300
C756        C  0.56688698  0.06080208  0.58656227    -0.14400
C757        C  0.59127260  0.06430343  0.57084401     0.36300
C758        C  0.62723902  0.05421295  0.57050747    -0.25700
C759        C  0.63974018  0.04127701  0.58558830    -0.15000
C760        C  0.61795593  0.04184241  0.60161003     0.37300
N761        N  0.63060556  0.02998900  0.61740070    -0.89200
H762        H  0.56329267  0.04919509  0.61398261     0.18500
H763        H  0.64458767  0.05505333  0.55826356     0.18400
N764        N  0.57858126  0.07677452  0.55521015    -0.88300
H765        H  0.60919724  0.02926358  0.62775951     0.35800
H766        H  0.66399594  0.05642921  0.62042703     0.40900
H767        H  0.59969106  0.07738368  0.54475894     0.40500
H768        H  0.58495214  0.11046709  0.55709238     0.35400
C769        C  0.52640936  0.90674165  0.42795083    -0.26300
C770        C  0.55577745  0.92054069  0.44221121    -0.14400
C771        C  0.54353037  0.93576210  0.45776386     0.36300
C772        C  0.50505218  0.94189535  0.45805202    -0.25700
C773        C  0.47910616  0.93390943  0.44303853    -0.15000
C774        C  0.48864757  0.91381961  0.42808573     0.37300
N775        N  0.46176298  0.90150385  0.41267607    -0.89200
H776        H  0.53506858  0.89410929  0.41606218     0.18500
H777        H  0.49727421  0.95589863  0.46976515     0.18400
N778        N  0.57142329  0.94692077  0.47294142    -0.88300
H779        H  0.46611216  0.93133985  0.40719461     0.35800
H780        H  0.42690866  0.87997717  0.41603102     0.40900
H781        H  0.56939734  0.91654016  0.47685662     0.40500
H782        H  0.55802366  0.95823472  0.48322448     0.35400
C783        C  0.35038497  0.97548747  0.50911994    -0.26300
C784        C  0.37548324  0.01496043  0.49910036    -0.14400
C785        C  0.40123786  0.05842538  0.50759568     0.36300
C786        C  0.40371102  0.06081949  0.52577958    -0.25700
C787        C  0.38178486  0.02085025  0.53565717    -0.15000
C788        C  0.35290012  0.97793700  0.52730697     0.37300
N789        N  0.32821605  0.93668949  0.53713223    -0.89200
H790        H  0.32983785  0.94215603  0.50269260     0.18500
H791        H  0.42506935  0.09399756  0.53220208     0.18400
N792        N  0.42680493  0.09968199  0.49782649    -0.88300
H793        H  0.31051438  0.90779197  0.52887966     0.35800
H794        H  0.30291730  0.93935206  0.54461244     0.40900
H795        H  0.45398931  0.09804000  0.49136862     0.40500
H796        H  0.44214664  0.12877032  0.50613337     0.35400
C797        C  0.11603299  0.53817586  0.45950071    -0.26300
C798        C  0.11814930  0.55919716  0.44393799    -0.14400
C799        C  0.12456743  0.54061543  0.42802315     0.36300
C800        C  0.12539579  0.49923556  0.42795497    -0.25700
C801        C  0.11896530  0.47593003  0.44342002    -0.15000
C802        C  0.11695882  0.49696586  0.45945025     0.37300
N803        N  0.11404513  0.47552161  0.47556512    -0.89200
H804        H  0.11173297  0.55302341  0.47169528     0.18500
H805        H  0.12726700  0.48333177  0.41565601     0.18400
N806        N  0.12663552  0.56177769  0.41192431    -0.88300
H807        H  0.11211514  0.49515385  0.48611291     0.35800
H808        H  0.14486880  0.47514902  0.47680336     0.40900
H809        H  0.09430711  0.55861329  0.41016078     0.40500
H810        H  0.13184133  0.54397913  0.40144853     0.35400
C811        C  0.20673157  0.80844440  0.41752812    -0.26300
C812        C  0.17207023  0.80084627  0.42995540    -0.14400
C813        C  0.17587398  0.83847901  0.44017784     0.36300
C814        C  0.21655883  0.88175725  0.43894883    -0.25700
C815        C  0.25338611  0.88787789  0.42784132    -0.15000
C816        C  0.24705196  0.85154818  0.41629428     0.37300
N817        N  0.28224840  0.85766613  0.40375662    -0.89200
H818        H  0.20358996  0.78009264  0.40927614     0.18500
H819        H  0.22095807  0.90966852  0.44773656     0.18400
N820        N  0.14048668  0.83185285  0.45279403    -0.88300
H821        H  0.26764370  0.85019829  0.39143505     0.35800
H822        H  0.29252818  0.83372540  0.40608709     0.40900
H823        H  0.11089653  0.82428172  0.44599117     0.40500
H824        H  0.14993605  0.86241616  0.45991964     0.35400
C825        C  0.97607477  0.40932346  0.60053305    -0.26300
C826        C  0.99271079  0.39759204  0.58536036    -0.14400
C827        C  0.99183437  0.41651369  0.56951036     0.36300
C828        C  0.98225593  0.45246356  0.56957539    -0.25700
C829        C  0.97291546  0.46938872  0.58521495    -0.15000
C830        C  0.96552158  0.44485437  0.60058953     0.37300
N831        N  0.95085456  0.45824442  0.61643351    -0.89200
H832        H  0.97459335  0.39325747  0.61261705     0.18500
H833        H  0.98577400  0.46949199  0.55751392     0.18400
N834        N  0.00243845  0.40060422  0.55341120    -0.88300
H835        H  0.94834765  0.43738787  0.62658629     0.35800
H836        H  0.91740916  0.45211772  0.61453504     0.40900
H837        H  0.03088567  0.42856772  0.54759803     0.40500
H838        H  0.97415162  0.38908278  0.54526295     0.35400
C839        C  0.93008364  0.70179557  0.60250128    -0.26300
C840        C  0.92497580  0.66091023  0.60889372    -0.14400
C841        C  0.88215133  0.62872184  0.61635367     0.36300
C842        C  0.84351425  0.63373574  0.61451300    -0.25700
C843        C  0.84699618  0.67107018  0.60568861    -0.15000
C844        C  0.89140202  0.70755599  0.60106928     0.37300
N845        N  0.89667282  0.74867665  0.59383620    -0.89200
H846        H  0.96332457  0.72751146  0.59728957     0.18500
H847        H  0.81004425  0.60649432  0.61894919     0.18400
N848        N  0.87718024  0.58952499  0.62500557    -0.88300
H849        H  0.93143644  0.77157465  0.59080708     0.35800
H850        H  0.88703992  0.76511635  0.60352793     0.40900
H851        H  0.85202414  0.55972446  0.61860299     0.40500
H852        H  0.86515994  0.59013874  0.63767279     0.35400
C853        C  0.99556862  0.62349669  0.52399661    -0.26300
C854        C  0.03390098  0.64889187  0.53481847    -0.14400
C855        C  0.07690547  0.68065511  0.52721210     0.36300
C856        C  0.08116070  0.68404818  0.50905480    -0.25700
C857        C  0.04344405  0.65710306  0.49817343    -0.15000
C858        C  0.99985004  0.62696183  0.50579451     0.37300
N859        N  0.96045015  0.59872822  0.49511535    -0.89200
H860        H  0.96232709  0.59935844  0.52969314     0.18500
H861        H  0.11457533  0.70768565  0.50334385     0.18400
N862        N  0.11644870  0.70881358  0.53783565    -0.88300
H863        H  0.93081376  0.57965974  0.50279276     0.35800
H864        H  0.96673429  0.57475641  0.48832658     0.40900
H865        H  0.10955581  0.73174274  0.54510464     0.40500
H866        H  0.14573180  0.72901690  0.53015289     0.35400
C867        C  0.52883541  0.48313574  0.46294755    -0.26300
C868        C  0.49785030  0.47624425  0.44978677    -0.14400
C869        C  0.50730574  0.51309502  0.43909287     0.36300
C870        C  0.55025600  0.55362846  0.44009294    -0.25700
C871        C  0.58397027  0.55758851  0.45145003    -0.15000
C872        C  0.57191615  0.52374832  0.46396630     0.37300
N873        N  0.60441360  0.52949086  0.47692544    -0.89200
H874        H  0.52085991  0.45551832  0.47166367     0.18500
H875        H  0.55867262  0.58005387  0.43074475     0.18400
N876        N  0.47525928  0.50823249  0.42619336    -0.88300
H877        H  0.59022910  0.50111086  0.48498230     0.35800
H878        H  0.61040293  0.55799908  0.48481730     0.40900
H879        H  0.49158554  0.51296461  0.41400653     0.40500
H880        H  0.46739855  0.53446954  0.42840569     0.35400
C881        C  0.25549617  0.33025984  0.40763321    -0.26300
C882        C  0.26189074  0.29941611  0.41722899    -0.14400
C883        C  0.22402618  0.26512309  0.42669302     0.36300
C884        C  0.18244313  0.26611062  0.42800209    -0.25700
C885        C  0.17796589  0.30037605  0.41994441    -0.15000
C886        C  0.21387745  0.33078824  0.40879254     0.37300
N887        N  0.20895602  0.36344924  0.39909430    -0.89200
H888        H  0.28397838  0.35606156  0.40001055     0.18500
H889        H  0.15471769  0.24206350  0.43635737     0.18400
N890        N  0.22911123  0.23202924  0.43615881    -0.88300
H891        H  0.21353197  0.35768960  0.38592098     0.35800
H892        H  0.23539342  0.39651472  0.40264998     0.40900
H893        H  0.23362703  0.21061719  0.42703999     0.40500
H894        H  0.19876157  0.21076933  0.44314322     0.35400
C895        C  0.54672402  0.46058446  0.55270795    -0.26300
C896        C  0.53584988  0.42901995  0.56592328    -0.14400
C897        C  0.57098105  0.43504392  0.57714105     0.36300
C898        C  0.61407582  0.47559884  0.57653077    -0.25700
C899        C  0.62234892  0.51031003  0.56502417    -0.15000
C900        C  0.58979142  0.50121907  0.55209020     0.37300
N901        N  0.59956443  0.53430732  0.53899015    -0.89200
H902        H  0.52054623  0.45527421  0.54355206     0.18500
H903        H  0.63950035  0.48150739  0.58613815     0.18400
N904        N  0.56243132  0.40145187  0.58977744    -0.88300
H905        H  0.57160154  0.52256462  0.53065825     0.35800
H906        H  0.62734359  0.53702843  0.53140597     0.40900
H907        H  0.56814730  0.41745886  0.60209904     0.40500
H908        H  0.58649749  0.39053525  0.58762823     0.35400
C909        C  0.34681760  0.17487285  0.59779401    -0.26300
C910        C  0.38550787  0.21888319  0.60069304    -0.14400
C911        C  0.42641174  0.22202263  0.60700074     0.36300
C912        C  0.42858524  0.18205630  0.60888862    -0.25700
C913        C  0.39195635  0.13857739  0.60390090    -0.15000
C914        C  0.34969544  0.13491279  0.59904572     0.37300
N915        N  0.30995992  0.09176122  0.59428821    -0.89200
H916        H  0.31495644  0.17144957  0.59321979     0.18500
H917        H  0.46091733  0.18566528  0.61300438     0.18400
N918        N  0.46742747  0.26509888  0.61074265    -0.88300
H919        H  0.30085170  0.06939862  0.60460770     0.35800
H920        H  0.31815941  0.07783773  0.58328300     0.40900
H921        H  0.45910683  0.28432790  0.61961921     0.40500
H922        H  0.48087944  0.28297609  0.59925202     0.35400
C923        C  0.36628501  0.26815680  0.51447288    -0.26300
C924        C  0.34787959  0.29276838  0.52357718    -0.14400
C925        C  0.32791639  0.31296145  0.51402258     0.36300
C926        C  0.33113455  0.31246716  0.49581240    -0.25700
C927        C  0.35423340  0.29236148  0.48677824    -0.15000
C928        C  0.36953145  0.26771064  0.49622449     0.37300
N929        N  0.39044845  0.24411800  0.48748870    -0.89200
H930        H  0.38079074  0.25135331  0.52155615     0.18500
H931        H  0.31782313  0.33048628  0.48880094     0.18400
N932        N  0.30692055  0.33657106  0.52269012    -0.88300
H933        H  0.37148020  0.20943504  0.49077066     0.35800
H934        H  0.42396083  0.25786912  0.49215383     0.40900
H935        H  0.27281301  0.32144274  0.51850184     0.40500
H936        H  0.32465525  0.37083781  0.51884945     0.35400
C937        C  0.91284000  0.33659567  0.39588789    -0.26300
C938        C  0.90142642  0.30723756  0.38099853    -0.14400
C939        C  0.91214751  0.27144268  0.38101902     0.36300
C940        C  0.93986133  0.27044935  0.39411267    -0.25700
C941        C  0.95528040  0.30292893  0.40795753    -0.15000
C942        C  0.93987975  0.33524659  0.40918727     0.37300
N943        N  0.95285261  0.36773286  0.42361545    -0.89200
H944        H  0.90090448  0.36100250  0.39740348     0.18500
H945        H  0.94981570  0.24431905  0.39330775     0.18400
N946        N  0.89512339  0.23597450  0.36770005    -0.88300
H947        H  0.93696363  0.38759926  0.42295738     0.35800
H948        H  0.98845173  0.39068544  0.42250292     0.40900
H949        H  0.87516206  0.20426618  0.37364222     0.40500
H950        H  0.92344732  0.23600596  0.36148890     0.35400
C951        C  0.74656978  0.12711768  0.38276701    -0.26300
C952        C  0.71716030  0.10992874  0.36821965    -0.14400
C953        C  0.68411913  0.06244174  0.36759357     0.36300
C954        C  0.68485531  0.03310899  0.37988623    -0.25700
C955        C  0.71635763  0.05007864  0.39365666    -0.15000
C956        C  0.74717059  0.09797995  0.39520075     0.37300
N957        N  0.77819111  0.11727988  0.40957519    -0.89200
H958        H  0.76848452  0.16377162  0.38501772     0.18500
H959        H  0.65931229  0.99674601  0.37889322     0.18400
N960        N  0.64830065  0.04395383  0.35497890    -0.88300
H961        H  0.79699431  0.15326070  0.40922159     0.35800
H962        H  0.80240512  0.10636998  0.40807565     0.40900
H963        H  0.61641110  0.02924147  0.36159699     0.40500
H964        H  0.65012206  0.01775341  0.34782388     0.35400
C965        C  0.37780348  0.88284194  0.64807854    -0.26300
C966        C  0.39997929  0.85753143  0.64317839    -0.14400
C967        C  0.41068619  0.85605845  0.62520370     0.36300
C968        C  0.40726891  0.88572051  0.61382807    -0.25700
C969        C  0.39184095  0.91594616  0.61970899    -0.15000
C970        C  0.37503059  0.91274047  0.63683591     0.37300
N971        N  0.35486625  0.93969081  0.64296612    -0.89200
H972        H  0.36142281  0.87944183  0.66069054     0.18500
H973        H  0.41822150  0.88608836  0.60040000     0.18400
N974        N  0.42365315  0.82421826  0.61786998    -0.88300
H975        H  0.37370443  0.95990526  0.65363792     0.35800
H976        H  0.32102108  0.91720080  0.64723165     0.40900
H977        H  0.39921659  0.79089487  0.62158398     0.40500
H978        H  0.45620400  0.83289761  0.62223194     0.35400
C979        C  0.12878455  0.59475206  0.62955062    -0.26300
C980        C  0.13688412  0.63171054  0.61923312    -0.14400
C981        C  0.18151119  0.67096090  0.61893801     0.36300
C982        C  0.21586284  0.67343649  0.62969301    -0.25700
C983        C  0.20793743  0.63682011  0.64040651    -0.15000
C984        C  0.16329209  0.59702000  0.64013208     0.37300
N985        N  0.15178525  0.55956513  0.65128268    -0.89200
H986        H  0.09479308  0.56409448  0.62984258     0.18500
H987        H  0.24792958  0.70583721  0.63030034     0.18400
N988        N  0.19130005  0.70945360  0.60851474    -0.88300
H989        H  0.14089792  0.52968222  0.64353461     0.35800
H990        H  0.12406128  0.55492648  0.65936371     0.40900
H991        H  0.19103217  0.69913053  0.59550896     0.40500
H992        H  0.22471256  0.73698791  0.61072870     0.35400
C993        C  0.33862359  0.42072537  0.62442993    -0.26300
C994        C  0.37404318  0.43598416  0.61176988    -0.14400
C995        C  0.41130595  0.48213651  0.61319098     0.36300
C996        C  0.41471038  0.50992596  0.62797210    -0.25700
C997        C  0.38238197  0.49221865  0.64164127    -0.15000
C998        C  0.34265837  0.44805489  0.63936121     0.37300
N999        N  0.30963511  0.42882819  0.65339053    -0.89200
H1000       H  0.30962765  0.38581457  0.62347946     0.18500
H1001       H  0.44519949  0.54365110  0.62954270     0.18400
N1002       N  0.44770705  0.49999001  0.60034110    -0.88300
H1003       H  0.28216705  0.39647389  0.64973300     0.35800
H1004       H  0.29617478  0.45052566  0.65594441     0.40900
H1005       H  0.47880015  0.50935625  0.60641730     0.40500
H1006       H  0.45021624  0.52977372  0.59550093     0.35400
C1007       C  0.60120877  0.84416569  0.61351686    -0.26300
C1008       C  0.64980199  0.86756547  0.61484927    -0.14400
C1009       C  0.66873722  0.86129357  0.62986960     0.36300
C1010       C  0.63951479  0.83915678  0.64417858    -0.25700
C1011       C  0.59148250  0.82201568  0.64378797    -0.15000
C1012       C  0.57185567  0.82054512  0.62770306     0.37300
N1013       N  0.52259234  0.79685813  0.62592216    -0.89200
H1014       H  0.58597621  0.84653291  0.60172110     0.18500
H1015       H  0.65470347  0.83753256  0.65612022     0.18400
N1016       N  0.71768358  0.87910686  0.63089520    -0.88300
H1017       H  0.51384627  0.79867399  0.61320660     0.35800
H1018       H  0.51043487  0.81445385  0.63378793     0.40900
H1019       H  0.72637157  0.86116631  0.62152495     0.40500
H1020       H  0.72595724  0.87208235  0.64291311     0.35400
C1021       C  0.59230259  0.69811924  0.63548768    -0.26300
C1022       C  0.56412709  0.65650091  0.64402689    -0.14400
C1023       C  0.56323292  0.61632517  0.63764040     0.36300
C1024       C  0.59216374  0.61853107  0.62370022    -0.25700
C1025       C  0.62361733  0.66062429  0.61602327    -0.15000
C1026       C  0.62200141  0.70061534  0.62144009     0.37300
N1027       N  0.65198224  0.74384095  0.61340133    -0.89200
H1028       H  0.59397861  0.72938184  0.64070858     0.18500
H1029       H  0.59180197  0.58709480  0.61961947     0.18400
N1030       N  0.53610544  0.57383392  0.64643747    -0.88300
H1031       H  0.64719996  0.76983034  0.61922037     0.35800
H1032       H  0.64177747  0.74058481  0.60051323     0.40900
H1033       H  0.51497171  0.54864676  0.63733461     0.40500
H1034       H  0.55864521  0.56394787  0.65114085     0.35400
C1035       C  0.90894307  0.55324456  0.38199999    -0.26300
C1036       C  0.91857335  0.52135890  0.37308238    -0.14400
C1037       C  0.95852231  0.52011707  0.37783059     0.36300
C1038       C  0.98621097  0.54852427  0.39135815    -0.25700
C1039       C  0.97620001  0.57956779  0.40045556    -0.15000
C1040       C  0.93763220  0.58263678  0.39549669     0.37300
N1041       N  0.92826664  0.61615937  0.40389324    -0.89200
H1042       H  0.87958441  0.55604954  0.37848708     0.18500
H1043       H  0.01589102  0.54586717  0.39480066     0.18400
N1044       N  0.97118150  0.48959138  0.36891974    -0.88300
H1045       H  0.89936123  0.61477357  0.39851364     0.35800
H1046       H  0.95625559  0.64877418  0.40116605     0.40900
H1047       H  0.97229116  0.46797442  0.37801931     0.40500
H1048       H  0.00444219  0.50939181  0.36359686     0.35400
C1049       C  0.50085787  0.36206869  0.37882454    -0.26300
C1050       C  0.49472992  0.33569765  0.39340590    -0.14400
C1051       C  0.52349809  0.31632875  0.39480838     0.36300
C1052       C  0.55484960  0.32115059  0.38106538    -0.25700
C1053       C  0.55498083  0.34098989  0.36533461    -0.15000
C1054       C  0.53059642  0.36513129  0.36502211     0.37300
N1055       N  0.53674513  0.39386038  0.35078252    -0.89200
H1056       H  0.48173344  0.37999805  0.37785728     0.18500
H1057       H  0.57886401  0.30929369  0.38278045     0.18400
N1058       N  0.52067183  0.29156711  0.40998124    -0.88300
H1059       H  0.50437630  0.38257161  0.34541440     0.35800
H1060       H  0.54926356  0.42750081  0.35566939     0.40900
H1061       H  0.53274471  0.31525883  0.42045032     0.40500
H1062       H  0.54267281  0.27791480  0.40863285     0.35400
C1063       C  0.76334733  0.50196804  0.38530254    -0.26300
C1064       C  0.72531212  0.48041860  0.37419250    -0.14400
C1065       C  0.68516063  0.48229218  0.37894323     0.36300
C1066       C  0.68627604  0.51107300  0.39277156    -0.25700
C1067       C  0.72712125  0.53899722  0.40205448    -0.15000
C1068       C  0.76472207  0.53134099  0.39924888     0.37300
N1069       N  0.80472863  0.55462198  0.41001511    -0.89200
H1070       H  0.79332481  0.49867299  0.38245634     0.18500
H1071       H  0.65579250  0.51398676  0.39537254     0.18400
N1072       N  0.64370654  0.45765921  0.36910109    -0.88300
H1073       H  0.82885210  0.54469186  0.40627872     0.35800
H1074       H  0.79409323  0.54316100  0.42265705     0.40900
H1075       H  0.63467829  0.42303444  0.36853193     0.40500
H1076       H  0.65028478  0.46962455  0.35644240     0.35400
C1077       C  0.17800049  0.39155165  0.64032351    -0.26300
C1078       C  0.17715641  0.41105511  0.62471893    -0.14400
C1079       C  0.20537075  0.45963837  0.62329776     0.36300
C1080       C  0.22987179  0.48729608  0.63796496    -0.25700
C1081       C  0.22648675  0.46769445  0.65410579    -0.15000
C1082       C  0.20211255  0.41887557  0.65479669     0.37300
N1083       N  0.20162003  0.39643183  0.67026627    -0.89200
H1084       H  0.15823684  0.35449827  0.64163446     0.18500
H1085       H  0.25016012  0.52431883  0.63690058     0.18400
N1086       N  0.20811919  0.48098726  0.60719966    -0.88300
H1087       H  0.21476525  0.37457285  0.66722247     0.35800
H1088       H  0.16717728  0.37589697  0.67433837     0.40900
H1089       H  0.22434656  0.46969641  0.59804592     0.40500
H1090       H  0.22930298  0.51677117  0.60842621     0.35400
C1091       C  0.55817239  0.16479784  0.40123085    -0.26300
C1092       C  0.53936383  0.17124922  0.38623650    -0.14400
C1093       C  0.49195121  0.15915267  0.38734860     0.36300
C1094       C  0.46336753  0.13068438  0.40063484    -0.25700
C1095       C  0.48121696  0.11644712  0.41368846    -0.15000
C1096       C  0.52994026  0.13713455  0.41465717     0.37300
N1097       N  0.55213408  0.12936334  0.42860934    -0.89200
H1098       H  0.59488409  0.17947889  0.40263621     0.18500
H1099       H  0.42660653  0.11849493  0.40040395     0.18400
N1100       N  0.47158428  0.17517439  0.37543373    -0.88300
H1101       H  0.54239834  0.09453226  0.42853774     0.35800
H1102       H  0.54195808  0.13865781  0.44035208     0.40900
H1103       H  0.47411110  0.16448904  0.36279106     0.40500
H1104       H  0.48884946  0.21114053  0.37623982     0.35400
C1105       C  0.74328663  0.55029923  0.28168529    -0.26300
C1106       C  0.74099022  0.58963724  0.28712727    -0.14400
C1107       C  0.74181784  0.59959049  0.30520960     0.36300
C1108       C  0.74359693  0.57017987  0.31711502    -0.25700
C1109       C  0.74449244  0.52982638  0.31182529    -0.15000
C1110       C  0.74486032  0.52062280  0.29371686     0.37300
N1111       N  0.74603026  0.48047656  0.28743093    -0.89200
H1112       H  0.74366147  0.54219799  0.26794203     0.18500
H1113       H  0.74361929  0.57997188  0.33056145     0.18400
N1114       N  0.74150739  0.63971733  0.31211141    -0.88300
H1115       H  0.77517779  0.49113484  0.27932291     0.35800
H1116       H  0.71664450  0.46034814  0.27996301     0.40900
H1117       H  0.71106804  0.63835112  0.30844728     0.40500
H1118       H  0.77027802  0.66907917  0.30717993     0.35400
C1119       C  0.68337626  0.62240316  0.16969547    -0.26300
C1120       C  0.70637523  0.66095645  0.15906471    -0.14400
C1121       C  0.73097794  0.70517833  0.16705175     0.36300
C1122       C  0.73414280  0.70976320  0.18521555    -0.25700
C1123       C  0.71352193  0.67103383  0.19580633    -0.15000
C1124       C  0.68652831  0.62704937  0.18790503     0.37300
N1125       N  0.66366084  0.58677143  0.19819381    -0.89200
H1126       H  0.66386943  0.58815146  0.16384403     0.18500
H1127       H  0.75460900  0.74398851  0.19098920     0.18400
N1128       N  0.75477359  0.74552519  0.15681780    -0.88300
H1129       H  0.67598742  0.56471293  0.19420818     0.35800
H1130       H  0.62829646  0.57002106  0.19560595     0.40900
H1131       H  0.78991223  0.76229225  0.15979681     0.40500
H1132       H  0.74218049  0.76756054  0.16047544     0.35400
C1133       C  0.50381434  0.34116325  0.28607415    -0.26300
C1134       C  0.47490910  0.29829114  0.27816827    -0.14400
C1135       C  0.48250958  0.26131092  0.28117995     0.36300
C1136       C  0.51730027  0.26782704  0.29275335    -0.25700
C1137       C  0.54477664  0.31042529  0.30155038    -0.15000
C1138       C  0.53858241  0.34805549  0.29729801     0.37300
N1139       N  0.56639851  0.39414292  0.30415981    -0.89200
H1140       H  0.49925364  0.37014925  0.28361580     0.18500
H1141       H  0.52073048  0.23847759  0.29543655     0.18400
N1142       N  0.45394366  0.21677367  0.27304412    -0.88300
H1143       H  0.59989425  0.40843301  0.29900085     0.35800
H1144       H  0.56665414  0.39478971  0.31766824     0.40900
H1145       H  0.42053813  0.20330660  0.27833878     0.40500
H1146       H  0.46509543  0.19394718  0.27610294     0.35400
C1147       C  0.52778513  0.46051331  0.07662666    -0.26300
C1148       C  0.49159644  0.45799928  0.08723185    -0.14400
C1149       C  0.49747227  0.49870915  0.09576563     0.36300
C1150       C  0.54140618  0.53899426  0.09551031    -0.25700
C1151       C  0.57911461  0.53940889  0.08671560    -0.15000
C1152       C  0.57117585  0.50084430  0.07617730     0.37300
N1153       N  0.60761191  0.50186274  0.06549025    -0.89200
H1154       H  0.52334614  0.43016157  0.06943061     0.18500
H1155       H  0.54694360  0.56895582  0.10326432     0.18400
N1156       N  0.46002994  0.49823468  0.10568436    -0.88300
H1157       H  0.59653415  0.49501335  0.05263410     0.35800
H1158       H  0.61296266  0.47538204  0.06923252     0.40900
H1159       H  0.43442300  0.49261176  0.09692873     0.40500
H1160       H  0.47066122  0.53046257  0.11167025     0.35400
C1161       C  0.32041092  0.30128102  0.18687437    -0.26300
C1162       C  0.36150571  0.32397954  0.19640413    -0.14400
C1163       C  0.40263963  0.35694814  0.18801481     0.36300
C1164       C  0.40236202  0.36336647  0.17008829    -0.25700
C1165       C  0.36199989  0.33757903  0.16029458    -0.15000
C1166       C  0.32032295  0.30764206  0.16900780     0.37300
N1167       N  0.27797711  0.28238001  0.15971447    -0.89200
H1168       H  0.28820472  0.27675954  0.19312977     0.18500
H1169       H  0.43455279  0.38697497  0.16359362     0.18400
N1170       N  0.44483399  0.38274834  0.19750243    -0.88300
H1171       H  0.25405848  0.29061443  0.16535160     0.35800
H1172       H  0.26521126  0.24722117  0.16130656     0.40900
H1173       H  0.44009936  0.40417453  0.20654614     0.40500
H1174       H  0.47211266  0.40447289  0.18928067     0.35400
C1175       C  0.92757271  0.27847000  0.29685778    -0.26300
C1176       C  0.95786124  0.32164280  0.28967560    -0.14400
C1177       C  0.95251234  0.35950174  0.29492561     0.36300
C1178       C  0.91978680  0.35422815  0.30811613    -0.25700
C1179       C  0.89258358  0.31177556  0.31622250    -0.15000
C1180       C  0.89595348  0.27349311  0.31016359     0.37300
N1181       N  0.86982798  0.23012893  0.31849338    -0.89200
H1182       H  0.93019997  0.24850203  0.29293979     0.18500
H1183       H  0.91831841  0.38418621  0.31299558     0.18400
N1184       N  0.98147717  0.40364397  0.28753746    -0.88300
H1185       H  0.89314156  0.22206621  0.32377508     0.35800
H1186       H  0.85118899  0.20485502  0.30898890     0.40900
H1187       H  0.00004166  0.42699741  0.29757695     0.40500
H1188       H  0.96014329  0.41417700  0.28218834     0.35400
C1189       C  0.27614464  0.37228659  0.26849092    -0.26300
C1190       C  0.27164123  0.33184942  0.27509599    -0.14400
C1191       C  0.23253736  0.30380862  0.28546992     0.36300
C1192       C  0.19579986  0.31259754  0.28676395    -0.25700
C1193       C  0.19713296  0.34868317  0.27768596    -0.15000
C1194       C  0.23922893  0.38109863  0.26969231     0.37300
N1195       N  0.24316011  0.42070265  0.26160495    -0.89200
H1196       H  0.30683345  0.39498666  0.26101154     0.18500
H1197       H  0.16444492  0.28836713  0.29357320     0.18400
N1198       N  0.22874945  0.26482937  0.29389289    -0.88300
H1199       H  0.27596530  0.44031251  0.25589547     0.35800
H1200       H  0.24021447  0.44154717  0.27143539     0.40900
H1201       H  0.19926305  0.23524710  0.28930726     0.40500
H1202       H  0.22392576  0.26867454  0.30720706     0.35400
C1203       C  0.07498875  0.36604378  0.19242011    -0.26300
C1204       C  0.09928076  0.35011608  0.20162365    -0.14400
C1205       C  0.12569508  0.33391340  0.19223049     0.36300
C1206       C  0.12457616  0.33113407  0.17397652    -0.25700
C1207       C  0.09757070  0.34390478  0.16473267    -0.15000
C1208       C  0.07331799  0.36269202  0.17424153     0.37300
N1209       N  0.04556467  0.37755016  0.16600963    -0.89200
H1210       H  0.05474769  0.37870807  0.19941874     0.18500
H1211       H  0.14385148  0.31740411  0.16697056     0.18400
N1212       N  0.15272208  0.31920746  0.20123470    -0.88300
H1213       H  0.01838416  0.34929591  0.15964462     0.35800
H1214       H  0.06618509  0.40263025  0.15704582     0.40900
H1215       H  0.17880196  0.34811350  0.20774761     0.40500
H1216       H  0.16929957  0.30740589  0.19245939     0.35400
C1217       C  0.91675754  0.10637609  0.25611929    -0.26300
C1218       C  0.89404611  0.09666896  0.24023934    -0.14400
C1219       C  0.91778154  0.12303645  0.22567815     0.36300
C1220       C  0.96077684  0.16311724  0.22803483    -0.25700
C1221       C  0.98001716  0.17683024  0.24461075    -0.15000
C1222       C  0.95916008  0.14660503  0.25856359     0.37300
N1223       N  0.97741952  0.15791644  0.27574577    -0.89200
H1224       H  0.89922475  0.08554980  0.26728242     0.18500
H1225       H  0.97748932  0.18562257  0.21720300     0.18400
N1226       N  0.89699582  0.11049580  0.20885203    -0.88300
H1227       H  0.97847888  0.18826205  0.28018757     0.35800
H1228       H  0.01095459  0.16306157  0.27525963     0.40900
H1229       H  0.89355841  0.07863141  0.20515108     0.40500
H1230       H  0.91887823  0.13394648  0.19960448     0.35400
C1231       C  0.74069146  0.14383476  0.28029028    -0.26300
C1232       C  0.70696607  0.09699827  0.27733994    -0.14400
C1233       C  0.66651404  0.07807917  0.28803310     0.36300
C1234       C  0.66393457  0.10359209  0.30246609    -0.25700
C1235       C  0.70091106  0.14768795  0.30688303    -0.15000
C1236       C  0.73775268  0.16925520  0.29481854     0.37300
N1237       N  0.77391928  0.21595833  0.29757298    -0.89200
H1238       H  0.77113089  0.16007862  0.27191982     0.18500
H1239       H  0.63534106  0.08638205  0.31158046     0.18400
N1240       N  0.62849091  0.03226697  0.28527570    -0.88300
H1241       H  0.78838406  0.21893996  0.30965828     0.35800
H1242       H  0.75895257  0.23680694  0.29803182     0.40900
H1243       H  0.63927504  0.00859297  0.28727450     0.40500
H1244       H  0.61730911  0.02883953  0.27252278     0.35400
C1245       C  0.76031472  0.88417267  0.27158622    -0.26300
C1246       C  0.72350732  0.88257571  0.26268919    -0.14400
C1247       C  0.68753059  0.83932309  0.25658457     0.36300
C1248       C  0.69185494  0.79994838  0.25775077    -0.25700
C1249       C  0.73127764  0.80280690  0.26487213    -0.15000
C1250       C  0.76442616  0.84478218  0.27272087     0.37300
N1251       N  0.80296704  0.84784987  0.28147527    -0.89200
H1252       H  0.78762777  0.91668002  0.27681790     0.18500
H1253       H  0.66575709  0.76755072  0.25198959     0.18400
N1254       N  0.64786512  0.83578983  0.24843492    -0.88300
H1255       H  0.80226654  0.85898439  0.29430300     0.35800
H1256       H  0.83337985  0.87291933  0.27548927     0.40900
H1257       H  0.62987938  0.84415522  0.25789117     0.40500
H1258       H  0.62525051  0.80183247  0.24428794     0.35400
C1259       C  0.90351127  0.21102655  0.11790363    -0.26300
C1260       C  0.93120769  0.22905346  0.10297411    -0.14400
C1261       C  0.91145414  0.21285974  0.08640926     0.36300
C1262       C  0.86699389  0.17399170  0.08526349    -0.25700
C1263       C  0.84222113  0.15187845  0.10030023    -0.15000
C1264       C  0.85901264  0.17280450  0.11668317     0.37300
N1265       N  0.83188129  0.15402788  0.13216037    -0.89200
H1266       H  0.91741370  0.22469072  0.13067124     0.18500
H1267       H  0.85347044  0.15874312  0.07260951     0.18400
N1268       N  0.93755432  0.23358699  0.07085171    -0.88300
H1269       H  0.82754226  0.17978275  0.13848909     0.35800
H1270       H  0.85051425  0.14540317  0.14031065     0.40900
H1271       H  0.94288702  0.26702046  0.07067176     0.40500
H1272       H  0.91844146  0.21625034  0.05981694     0.35400
C1273       C  0.73614279  0.95943354  0.17831286    -0.26300
C1274       C  0.71195672  0.97814663  0.18749422    -0.14400
C1275       C  0.68494994  0.99098499  0.17809046     0.36300
C1276       C  0.68703662  0.98963950  0.15979403    -0.25700
C1277       C  0.71447459  0.97459404  0.15066556    -0.15000
C1278       C  0.73783756  0.95761778  0.16006559     0.37300
N1279       N  0.76531482  0.94097135  0.15117098    -0.89200
H1280       H  0.75597064  0.94826210  0.18538943     0.18500
H1281       H  0.66811656  0.00168351  0.15260626     0.18400
N1282       N  0.65693182  0.00690475  0.18702624    -0.88300
H1283       H  0.77899024  0.92837578  0.15999321     0.35800
H1284       H  0.79359579  0.96912515  0.14537284     0.40900
H1285       H  0.63079695  0.97909582  0.19377527     0.40500
H1286       H  0.64028699  0.01613068  0.17815651     0.35400
C1287       C  0.89726302  0.61651032  0.11895928    -0.26300
C1288       C  0.90373358  0.59160118  0.10513546    -0.14400
C1289       C  0.86785365  0.56721118  0.09309636     0.36300
C1290       C  0.82795251  0.57130461  0.09444957    -0.25700
C1291       C  0.82338786  0.59932134  0.10751376    -0.15000
C1292       C  0.85739279  0.62019881  0.12041147     0.37300
N1293       N  0.85179833  0.64582646  0.13478547    -0.89200
H1294       H  0.92402227  0.63417285  0.12853979     0.18500
H1295       H  0.80156306  0.55462268  0.08468520     0.18400
N1296       N  0.87268892  0.54005176  0.07915098    -0.88300
H1297       H  0.88021901  0.65946596  0.14298183     0.35800
H1298       H  0.82308135  0.62262913  0.14211838     0.40900
H1299       H  0.89886661  0.56269995  0.07076452     0.40500
H1300       H  0.84250543  0.52311864  0.07187285     0.35400
C1301       C  0.13421938  0.48102235  0.09556171    -0.26300
C1302       C  0.10436099  0.43932401  0.08683198    -0.14400
C1303       C  0.07117599  0.43792779  0.07552446     0.36300
C1304       C  0.06429839  0.47582694  0.07519176    -0.25700
C1305       C  0.09072722  0.51558649  0.08545552    -0.15000
C1306       C  0.12772594  0.51910715  0.09495767     0.37300
N1307       N  0.15657503  0.55990153  0.10510170    -0.89200
H1308       H  0.16037486  0.48305727  0.10403150     0.18500
H1309       H  0.03672167  0.47349376  0.06747445     0.18400
N1310       N  0.04285073  0.39722033  0.06511831    -0.88300
H1311       H  0.19088091  0.57232450  0.10101435     0.35800
H1312       H  0.15360399  0.55083217  0.11809294     0.40900
H1313       H  0.06474059  0.39285222  0.05620231     0.40500
H1314       H  0.01961941  0.40157458  0.05784314     0.35400
C1315       C  0.96171936  0.71849537  0.25880671    -0.26300
C1316       C  0.97294573  0.70238071  0.24335798    -0.14400
C1317       C  0.95170701  0.70187605  0.22775739     0.36300
C1318       C  0.91569773  0.71188659  0.22842227    -0.25700
C1319       C  0.90103669  0.72302487  0.24426115    -0.15000
C1320       C  0.92601345  0.72876181  0.25940423     0.37300
N1321       N  0.91332681  0.74189516  0.27568414    -0.89200
H1322       H  0.97857498  0.72028538  0.27079444     0.18500
H1323       H  0.89737221  0.70853830  0.21664747     0.18400
N1324       N  0.96545822  0.68960279  0.21143711    -0.88300
H1325       H  0.94229225  0.77176409  0.28040134     0.35800
H1326       H  0.90460006  0.71569335  0.28444345     0.40900
H1327       H  0.99968535  0.71505093  0.20886205     0.40500
H1328       H  0.94575944  0.69014592  0.20131933     0.35400
C1329       C  0.96449100  0.48828954  0.31037472    -0.26300
C1330       C  0.91679159  0.47300730  0.31095468    -0.14400
C1331       C  0.89641982  0.47678296  0.29593435     0.36300
C1332       C  0.92469190  0.50118606  0.28171105    -0.25700
C1333       C  0.97332361  0.52232124  0.28217332    -0.15000
C1334       C  0.99291092  0.51328653  0.29641650     0.37300
N1335       N  0.04168582  0.53138011  0.29774188    -0.89200
H1336       H  0.98060139  0.48435521  0.32162624     0.18500
H1337       H  0.90856357  0.50621865  0.27072573     0.18400
N1338       N  0.84758412  0.45886212  0.29543786    -0.88300
H1339       H  0.05851912  0.56735612  0.29792313     0.35800
H1340       H  0.05303871  0.51968184  0.28692850     0.40900
H1341       H  0.83454925  0.43468158  0.28514513     0.40500
H1342       H  0.84221488  0.48590133  0.29256685     0.35400
C1343       C  0.09672722  0.65862227  0.18133559    -0.26300
C1344       C  0.06985188  0.61810046  0.19066630    -0.14400
C1345       C  0.04175738  0.57641405  0.18134029     0.36300
C1346       C  0.04042411  0.57665176  0.16310299    -0.25700
C1347       C  0.06585848  0.61759822  0.15386375    -0.15000
C1348       C  0.09445996  0.65908501  0.16317067     0.37300
N1349       N  0.11978088  0.70193803  0.15433300    -0.89200
H1350       H  0.11816576  0.69086420  0.18831989     0.18500
H1351       H  0.01843522  0.54460199  0.15609523     0.18400
N1352       N  0.01334562  0.53431114  0.19034218    -0.88300
H1353       H  0.14017607  0.72889446  0.16302228     0.35800
H1354       H  0.09560167  0.70961210  0.14960374     0.40900
H1355       H  0.03545464  0.52532887  0.19606309     0.40500
H1356       H  0.99315957  0.50736908  0.18161161     0.35400
C1357       C  0.28395788  0.11078664  0.26370967    -0.26300
C1358       C  0.29162216  0.13163130  0.24757691    -0.14400
C1359       C  0.29628953  0.10874906  0.23251596     0.36300
C1360       C  0.30173627  0.07037777  0.23431592    -0.25700
C1361       C  0.30168323  0.05418004  0.25080681    -0.15000
C1362       C  0.28917690  0.07231958  0.26546416     0.37300
N1363       N  0.28594023  0.05466171  0.28236685    -0.89200
H1364       H  0.27888355  0.12713538  0.27533725     0.18500
H1365       H  0.30931276  0.05514240  0.22291367     0.18400
N1366       N  0.29874192  0.12641861  0.21560612    -0.88300
H1367       H  0.25294831  0.04456130  0.28751247     0.35800
H1368       H  0.31017458  0.08137812  0.29030712     0.40900
H1369       H  0.26686824  0.12392894  0.21346944     0.40500
H1370       H  0.30291727  0.10592166  0.20594945     0.35400
C1371       C  0.54492682  0.10034914  0.31435019    -0.26300
C1372       C  0.53509893  0.13280771  0.32245278    -0.14400
C1373       C  0.49562521  0.13403584  0.31705055     0.36300
C1374       C  0.46776226  0.10343032  0.30389806    -0.25700
C1375       C  0.47690255  0.07036990  0.29586499    -0.15000
C1376       C  0.51647598  0.06924432  0.30110243     0.37300
N1377       N  0.52676684  0.03558357  0.29351421    -0.89200
H1378       H  0.57401118  0.09823646  0.31885384     0.18500
H1379       H  0.43789905  0.10533521  0.30011810     0.18400
N1380       N  0.48222020  0.16558562  0.32458290    -0.88300
H1381       H  0.55485616  0.03717221  0.29966986     0.35800
H1382       H  0.53715771  0.04444591  0.28062012     0.40900
H1383       H  0.50554970  0.18803454  0.33379664     0.40500
H1384       H  0.45042175  0.14619129  0.33101747     0.35400
C1385       C  0.27175442  0.79976960  0.25817364    -0.26300
C1386       C  0.27136388  0.83393868  0.26920496    -0.14400
C1387       C  0.23139512  0.82256116  0.27953090     0.36300
C1388       C  0.19151745  0.77898814  0.27730804    -0.25700
C1389       C  0.19045920  0.74643513  0.26496261    -0.15000
C1390       C  0.23170179  0.75648174  0.25582661     0.37300
N1391       N  0.23242385  0.72423100  0.24324279    -0.89200
H1392       H  0.30214487  0.80782088  0.25022061     0.18500
H1393       H  0.16034147  0.77136308  0.28464966     0.18400
N1394       N  0.23067292  0.85593757  0.29166078    -0.88300
H1395       H  0.25806890  0.71712391  0.24670070     0.35800
H1396       H  0.24174139  0.73993104  0.23118837     0.40900
H1397       H  0.25481371  0.86265406  0.30123281     0.40500
H1398       H  0.19843219  0.84244141  0.29796884     0.35400
C1399       C  0.48465415  0.19790167  0.10195640    -0.26300
C1400       C  0.46936197  0.17166820  0.11697639    -0.14400
C1401       C  0.45295148  0.18694598  0.13131115     0.36300
C1402       C  0.44591547  0.22420792  0.12957718    -0.25700
C1403       C  0.45464192  0.24622479  0.11363867    -0.15000
C1404       C  0.47745946  0.23523752  0.10011468     0.37300
N1405       N  0.49070019  0.26005463  0.08422731    -0.89200
H1406       H  0.49836588  0.18682044  0.09103918     0.18500
H1407       H  0.43027004  0.23350510  0.14037076     0.18400
N1408       N  0.44117222  0.16320222  0.14735780    -0.88300
H1409       H  0.50607541  0.24685520  0.07549675     0.35800
H1410       H  0.51608868  0.29402743  0.08724083     0.40900
H1411       H  0.40621766  0.15138872  0.15016730     0.40500
H1412       H  0.46069138  0.18691354  0.15716829     0.35400
C1413       C  0.56713602  0.02400985  0.07726011    -0.26300
C1414       C  0.53070594  0.99128370  0.08750520    -0.14400
C1415       C  0.53262570  0.95235744  0.09263911     0.36300
C1416       C  0.57283685  0.95005331  0.08925052    -0.25700
C1417       C  0.61182505  0.98608751  0.08105625    -0.15000
C1418       C  0.60745464  0.02199069  0.07398472     0.37300
N1419       N  0.64361250  0.05786924  0.06397686    -0.89200
H1420       H  0.56553526  0.05315863  0.07260501     0.18500
H1421       H  0.57475554  0.92154554  0.09438040     0.18400
N1422       N  0.49584878  0.91617615  0.10230504    -0.88300
H1423       H  0.65379866  0.04284723  0.05391206     0.35800
H1424       H  0.67166866  0.07865691  0.07193442     0.40900
H1425       H  0.46577964  0.90168430  0.09497748     0.40500
H1426       H  0.49055730  0.93015806  0.11394078     0.35400
C1427       C  0.36728103  0.94656371  0.18992210    -0.26300
C1428       C  0.40297949  0.97619269  0.20125180    -0.14400
C1429       C  0.44479003  0.01105734  0.19400769     0.36300
C1430       C  0.44946574  0.01678586  0.17594756    -0.25700
C1431       C  0.41304912  0.98873991  0.16463101    -0.15000
C1432       C  0.37164079  0.95248635  0.17186988     0.37300
N1433       N  0.33286634  0.92180866  0.16142524    -0.89200
H1434       H  0.33489266  0.91937161  0.19516506     0.18500
H1435       H  0.48164484  0.04461514  0.17085346     0.18400
N1436       N  0.48212770  0.04219897  0.20494664    -0.88300
H1437       H  0.34345879  0.90519692  0.15217745     0.35800
H1438       H  0.32120901  0.94097255  0.15516760     0.40900
H1439       H  0.48922679  0.07567227  0.20279114     0.40500
H1440       H  0.51139039  0.04012556  0.20119832     0.35400
C1441       C  0.87317062  0.76386227  0.04575235    -0.26300
C1442       C  0.88146630  0.80916154  0.04445735    -0.14400
C1443       C  0.85484992  0.82236534  0.05549177     0.36300
C1444       C  0.82046348  0.79004881  0.06671411    -0.25700
C1445       C  0.81149096  0.74457358  0.06714622    -0.15000
C1446       C  0.83929857  0.73208751  0.05684475     0.37300
N1447       N  0.83407858  0.68718621  0.05780417    -0.89200
H1448       H  0.89285454  0.75239053  0.03766747     0.18500
H1449       H  0.80003123  0.80042937  0.07487137     0.18400
N1450       N  0.86104294  0.86754581  0.05534494    -0.88300
H1451       H  0.86562561  0.69114245  0.06156824     0.35800
H1452       H  0.82674763  0.67169680  0.04538275     0.40900
H1453       H  0.82905168  0.86409745  0.05266080     0.40500
H1454       H  0.87029994  0.88237997  0.06781347     0.35400
C1455       C  0.33833735  0.04273732  0.06082751    -0.26300
C1456       C  0.32387665  0.00992805  0.07384825    -0.14400
C1457       C  0.27645319  0.97584235  0.07479096     0.36300
C1458       C  0.24563306  0.97436240  0.06254058    -0.25700
C1459       C  0.26044653  0.00593429  0.04889441    -0.15000
C1460       C  0.30761642  0.04105186  0.04849729     0.37300
N1461       N  0.32522307  0.07395309  0.03496251    -0.89200
H1462       H  0.37428583  0.06969879  0.05987326     0.18500
H1463       H  0.21047630  0.94659520  0.06368761     0.18400
N1464       N  0.25838478  0.94126496  0.08769457    -0.88300
H1465       H  0.35138800  0.07110487  0.02820563     0.35800
H1466       H  0.33997748  0.10695305  0.04072616     0.40900
H1467       H  0.26412381  0.95743306  0.09997615     0.40500
H1468       H  0.27566149  0.92259497  0.08652517     0.35400
C1469       C  0.91305714  0.00852035  0.04819764    -0.26300
C1470       C  0.89423548  0.97782529  0.03404352    -0.14400
C1471       C  0.84673609  0.94285721  0.03499381     0.36300
C1472       C  0.81871112  0.94333970  0.04887779    -0.25700
C1473       C  0.83664805  0.97713904  0.06222371    -0.15000
C1474       C  0.88497777  0.00855363  0.06226168     0.37300
N1475       N  0.90556183  0.04188930  0.07615991    -0.89200
H1476       H  0.94932199  0.03414265  0.04784895     0.18500
H1477       H  0.78221228  0.91765077  0.04893467     0.18400
N1478       N  0.82615167  0.90508770  0.02259485    -0.88300
H1479       H  0.92115705  0.07473809  0.07097285     0.35800
H1480       H  0.93139614  0.03759220  0.08148586     0.40900
H1481       H  0.84716569  0.89043827  0.02094622     0.40500
H1482       H  0.82227788  0.91614365  0.01068854     0.35400
C1483       C  0.25321057  0.18880578  0.06823484    -0.26300
C1484       C  0.27990955  0.23700185  0.06685232    -0.14400
C1485       C  0.28213940  0.25630000  0.05074201     0.36300
C1486       C  0.26161825  0.22742526  0.03616830    -0.25700
C1487       C  0.23961246  0.17899780  0.03700126    -0.15000
C1488       C  0.23263163  0.15976034  0.05353766     0.37300
N1489       N  0.20636166  0.11097516  0.05552480    -0.89200
H1490       H  0.25004931  0.17339426  0.08064625     0.18500
H1491       H  0.26481715  0.24340361  0.02389154     0.18400
N1492       N  0.30777405  0.30522974  0.04878851    -0.88300
H1493       H  0.17829619  0.10379598  0.06385356     0.35800
H1494       H  0.22711862  0.10089800  0.06163386     0.40900
H1495       H  0.28542785  0.31537273  0.04409673     0.40500
H1496       H  0.33394623  0.31283217  0.03945790     0.35400
C1497       C  0.14507674  0.20039423  0.05305584    -0.26300
C1498       C  0.10427726  0.15814572  0.04972193    -0.14400
C1499       C  0.06952124  0.14131665  0.06269018     0.36300
C1500       C  0.07293568  0.16929686  0.07738918    -0.25700
C1501       C  0.11017105  0.21488135  0.07911684    -0.15000
C1502       C  0.14783184  0.22926816  0.06732093     0.37300
N1503       N  0.18741964  0.27452464  0.06897244    -0.89200
H1504       H  0.17202910  0.21421565  0.04312654     0.18500
H1505       H  0.04385258  0.15692468  0.08644154     0.18400
N1506       N  0.02811037  0.09815539  0.05996742    -0.88300
H1507       H  0.19122886  0.29192923  0.05755381     0.35800
H1508       H  0.21656102  0.27119131  0.07017592     0.40900
H1509       H  0.00069054  0.10467777  0.06013156     0.40500
H1510       H  0.02343407  0.07740547  0.07045492     0.35400
C1511       C  0.11179405  0.79338374  0.04910884    -0.26300
C1512       C  0.08151844  0.77959751  0.03484921    -0.14400
C1513       C  0.04773499  0.73169796  0.03325669     0.36300
C1514       C  0.04615758  0.70058233  0.04512924    -0.25700
C1515       C  0.07633004  0.71473298  0.05915609    -0.15000
C1516       C  0.10995366  0.76177060  0.06102061     0.37300
N1517       N  0.14147174  0.77774907  0.07526098    -0.89200
H1518       H  0.13600779  0.82913679  0.05187089     0.18500
H1519       H  0.01954122  0.66468979  0.04358908     0.18400
N1520       N  0.01287278  0.71283333  0.02024700    -0.88300
H1521       H  0.16315134  0.81352941  0.07514983     0.35800
H1522       H  0.16292192  0.76359040  0.07338746     0.40900
H1523       H  0.02777690  0.71439245  0.00802117     0.40500
H1524       H  0.99419460  0.73003189  0.02063313     0.35400
C1525       C  0.83587896  0.77689832  0.96290053    -0.26300
C1526       C  0.85330746  0.75349685  0.95244705    -0.14400
C1527       C  0.89958964  0.76450495  0.95512766     0.36300
C1528       C  0.92507471  0.79507914  0.96890278    -0.25700
C1529       C  0.90508618  0.81380989  0.98050374    -0.15000
C1530       C  0.86115873  0.80733906  0.97646173     0.37300
N1531       N  0.84053808  0.83036222  0.98606680    -0.89200
H1532       H  0.80158866  0.77130891  0.96072553     0.18500
H1533       H  0.95998099  0.80284525  0.97092520     0.18400
N1534       N  0.92134930  0.74474893  0.94442018    -0.88300
H1535       H  0.83385608  0.84897878  0.97722996     0.35800
H1536       H  0.86374070  0.85511955  0.99479009     0.40900
H1537       H  0.92110846  0.75315290  0.93153752     0.40500
H1538       H  0.90228192  0.70894111  0.94545604     0.35400
C1539       C  0.68112162  0.70286108  0.71630986    -0.26300
C1540       C  0.66808725  0.66988698  0.72917018    -0.14400
C1541       C  0.62142088  0.63440021  0.73029996     0.36300
C1542       C  0.58896272  0.63346664  0.71891372    -0.25700
C1543       C  0.60153300  0.66746588  0.70632754    -0.15000
C1544       C  0.64880636  0.70183664  0.70494973     0.37300
N1545       N  0.66447324  0.73568516  0.69179601    -0.89200
H1546       H  0.71685458  0.73014282  0.71503795     0.18500
H1547       H  0.55429105  0.60470875  0.71983948     0.18400
N1548       N  0.60687919  0.59921262  0.74294560    -0.88300
H1549       H  0.68929048  0.73292436  0.68402663     0.35800
H1550       H  0.68052265  0.76833136  0.69788668     0.40900
H1551       H  0.62224648  0.57950848  0.73944681     0.40500
H1552       H  0.57111900  0.57669183  0.74257064     0.35400
C1553       C  0.80914841  0.67374513  0.82934376    -0.26300
C1554       C  0.76718330  0.65362834  0.82033134    -0.14400
C1555       C  0.72533709  0.62683625  0.82963977     0.36300
C1556       C  0.72645597  0.62269519  0.84768532    -0.25700
C1557       C  0.76818531  0.64541747  0.85687785    -0.15000
C1558       C  0.81018216  0.67003134  0.84743675     0.37300
N1559       N  0.85365223  0.69250605  0.85622614    -0.89200
H1560       H  0.84152208  0.69374091  0.82231165     0.18500
H1561       H  0.69398466  0.60338152  0.85473449     0.18400
N1562       N  0.68165547  0.60528668  0.82099061    -0.88300
H1563       H  0.88108132  0.71033692  0.84745510     0.35800
H1564       H  0.85837122  0.66678620  0.86125984     0.40900
H1565       H  0.67583393  0.63148440  0.81727832     0.40500
H1566       H  0.65458218  0.58508196  0.82956798     0.35400
C1567       C  0.29071096  0.18484900  0.94281711    -0.26300
C1568       C  0.33669157  0.21815793  0.94675186    -0.14400
C1569       C  0.35247619  0.21927583  0.96355655     0.36300
C1570       C  0.32127680  0.19134223  0.97638753    -0.25700
C1571       C  0.27345788  0.16303412  0.97324576    -0.15000
C1572       C  0.25960660  0.15601140  0.95560836     0.37300
N1573       N  0.21552273  0.11903801  0.94995599    -0.89200
H1574       H  0.27859676  0.18120886  0.92967766     0.18500
H1575       H  0.33508848  0.19286703  0.98901900     0.18400
N1576       N  0.39989160  0.24979375  0.96793882    -0.88300
H1577       H  0.19525531  0.13306715  0.94664569     0.35800
H1578       H  0.19830895  0.09498582  0.95958798     0.40900
H1579       H  0.41338773  0.23002331  0.97234162     0.40500
H1580       H  0.40086144  0.27171844  0.97816959     0.35400
C1581       C  0.59449430  0.44315663  0.91625636    -0.26300
C1582       C  0.55701671  0.44049098  0.92607615    -0.14400
C1583       C  0.56510401  0.47714982  0.93778876     0.36300
C1584       C  0.60882627  0.51717633  0.93821882    -0.25700
C1585       C  0.64520681  0.52162182  0.92722855    -0.15000
C1586       C  0.63853054  0.48332944  0.91669240     0.37300
N1587       N  0.67522373  0.48652329  0.90546493    -0.89200
H1588       H  0.58878991  0.41496700  0.90738062     0.18500
H1589       H  0.61357808  0.54595934  0.94657924     0.18400
N1590       N  0.52868612  0.47458338  0.94892639    -0.88300
H1591       H  0.66391656  0.45627112  0.89791275     0.35800
H1592       H  0.70119365  0.48908541  0.91337464     0.40900
H1593       H  0.52381113  0.50205904  0.94621490     0.40500
H1594       H  0.53946639  0.47877755  0.96177401     0.35400
C1595       C  0.43941991  0.47146429  0.71488676    -0.26300
C1596       C  0.40875915  0.45680032  0.70078304    -0.14400
C1597       C  0.37596608  0.40920135  0.69909310     0.36300
C1598       C  0.37620994  0.37787700  0.71052415    -0.25700
C1599       C  0.40724642  0.39271701  0.72435669    -0.15000
C1600       C  0.43909136  0.44019621  0.72647667     0.37300
N1601       N  0.46997991  0.45739015  0.74083400    -0.89200
H1602       H  0.46243776  0.50754123  0.71786347     0.18500
H1603       H  0.35048302  0.34171610  0.70890130     0.18400
N1604       N  0.34095095  0.39250324  0.68618138    -0.88300
H1605       H  0.50384894  0.47571252  0.73590052     0.35800
H1606       H  0.46339463  0.48042779  0.74818004     0.40900
H1607       H  0.30860847  0.37633646  0.69247327     0.40500
H1608       H  0.34369386  0.36780454  0.67832934     0.35400
C1609       C  0.43925357  0.35695141  0.82710767    -0.26300
C1610       C  0.42012193  0.31322076  0.81899376    -0.14400
C1611       C  0.40721223  0.27455161  0.82924082     0.36300
C1612       C  0.41167998  0.27999205  0.84736919    -0.25700
C1613       C  0.42799703  0.32335583  0.85562633    -0.15000
C1614       C  0.44276111  0.36230000  0.84526219     0.37300
N1615       N  0.46053775  0.40736868  0.85308783    -0.89200
H1616       H  0.44934889  0.38696684  0.81942942     0.18500
H1617       H  0.40041267  0.24974007  0.85504211     0.18400
N1618       N  0.38887973  0.22949581  0.82132421    -0.88300
H1619       H  0.43969570  0.42045320  0.84941917     0.35800
H1620       H  0.49388656  0.42856478  0.84807132     0.40900
H1621       H  0.35584936  0.20830961  0.82661166     0.40500
H1622       H  0.40994424  0.21633021  0.82460017     0.35400
C1623       C  0.29361415  0.94101803  0.97206410    -0.26300
C1624       C  0.30848697  0.97261741  0.95856544    -0.14400
C1625       C  0.28818926  0.00064900  0.95751627     0.36300
C1626       C  0.25690674  0.99904018  0.97075281    -0.25700
C1627       C  0.24687768  0.97144095  0.98527869    -0.15000
C1628       C  0.26297879  0.93985751  0.98523488     0.37300
N1629       N  0.24910846  0.90751724  0.99896540    -0.89200
H1630       H  0.30683312  0.91759125  0.97267083     0.18500
H1631       H  0.24226473  0.02104879  0.97007817     0.18400
N1632       N  0.29968308  0.03106646  0.94328269    -0.88300
H1633       H  0.26401750  0.88674145  0.99714692     0.35800
H1634       H  0.21328636  0.88565747  0.99825681     0.40900
H1635       H  0.33425336  0.05699375  0.94459926     0.40500
H1636       H  0.28024695  0.04759891  0.94409338     0.35400
C1637       C  0.45250463  0.90814253  0.72419548    -0.26300
C1638       C  0.41903339  0.88760087  0.73731122    -0.14400
C1639       C  0.38503563  0.84018692  0.73529288     0.36300
C1640       C  0.38365724  0.81558523  0.71969097    -0.25700
C1641       C  0.41469191  0.83765393  0.70592383    -0.15000
C1642       C  0.45018339  0.88449176  0.70853359     0.37300
N1643       N  0.48203358  0.90967772  0.69475941    -0.89200
H1644       H  0.47864447  0.94428789  0.72543075     0.18500
H1645       H  0.35605274  0.78025520  0.71775704     0.18400
N1646       N  0.35086485  0.81766269  0.74874994    -0.88300
H1647       H  0.51575841  0.92386316  0.69921272     0.35800
H1648       H  0.47737388  0.93719873  0.69188858     0.40900
H1649       H  0.36816076  0.81706328  0.75967474     0.40500
H1650       H  0.32798023  0.78330383  0.74514434     0.35400
C1651       C  0.36904507  0.13981641  0.74939182    -0.26300
C1652       C  0.40726204  0.18378029  0.75255067    -0.14400
C1653       C  0.45059028  0.18776787  0.75581276     0.36300
C1654       C  0.45345198  0.14752707  0.75729088    -0.25700
C1655       C  0.41416135  0.10345055  0.75541844    -0.15000
C1656       C  0.37191012  0.09997151  0.75084544     0.37300
N1657       N  0.33082730  0.05597158  0.74855526    -0.89200
H1658       H  0.33568405  0.13591473  0.74667016     0.18500
H1659       H  0.48610131  0.15065870  0.76064111     0.18400
N1660       N  0.49104609  0.23233511  0.75839459    -0.88300
H1661       H  0.31843752  0.05408430  0.73611082     0.35800
H1662       H  0.30583397  0.05393907  0.75759971     0.40900
H1663       H  0.49886242  0.24921958  0.74660421     0.40500
H1664       H  0.51957949  0.22909670  0.76123688     0.35400
C1665       C  0.46375802  0.98243589  0.85701903    -0.26300
C1666       C  0.44482641  0.00527727  0.86700039    -0.14400
C1667       C  0.43176875  0.03324854  0.85843923     0.36300
C1668       C  0.43568898  0.03563885  0.84020147    -0.25700
C1669       C  0.45081361  0.00955460  0.83014107    -0.15000
C1670       C  0.46658832  0.98392536  0.83876443     0.37300
N1671       N  0.48340776  0.95773608  0.82901854    -0.89200
H1672       H  0.47464840  0.96149956  0.86343493     0.18500
H1673       H  0.42375367  0.05567676  0.83375975     0.18400
N1674       N  0.41236652  0.05729774  0.86806635    -0.88300
H1675       H  0.49212748  0.93955352  0.83730886     0.35800
H1676       H  0.51403324  0.98116664  0.82266461     0.40900
H1677       H  0.37978541  0.03254766  0.87274098     0.40500
H1678       H  0.40657214  0.07785758  0.85988746     0.35400
C1679       C  0.24230814  0.75135401  0.91635709    -0.26300
C1680       C  0.21406990  0.74786201  0.90264610    -0.14400
C1681       C  0.23303224  0.78013686  0.88926731     0.36300
C1682       C  0.27753481  0.81845879  0.89117739    -0.25700
C1683       C  0.30307323  0.82512220  0.90615151    -0.15000
C1684       C  0.28637854  0.79001574  0.91836318     0.37300
N1685       N  0.31198654  0.79529373  0.93363076    -0.89200
H1686       H  0.22866354  0.72627099  0.92651642     0.18500
H1687       H  0.29097611  0.84488770  0.88151816     0.18400
N1688       N  0.20618207  0.77557046  0.87438201    -0.88300
H1689       H  0.31716649  0.76715614  0.93402917     0.35800
H1690       H  0.29183118  0.79424974  0.94448953     0.40900
H1691       H  0.20010085  0.74564388  0.86746152     0.40500
H1692       H  0.22493733  0.80295351  0.86603402     0.35400
C1693       C  0.01642317  0.74779548  0.95758948    -0.26300
C1694       C  0.05038038  0.76564579  0.94438807    -0.14400
C1695       C  0.08567644  0.81290450  0.94581408     0.36300
C1696       C  0.08988304  0.83832791  0.96130075    -0.25700
C1697       C  0.06017992  0.81748267  0.97546504    -0.15000
C1698       C  0.02127933  0.77276372  0.97319133     0.37300
N1699       N  0.99010816  0.75058967  0.98756506    -0.89200
H1700       H  0.98852514  0.71233904  0.95658132     0.18500
H1701       H  0.11944158  0.87275188  0.96289372     0.18400
N1702       N  0.11916796  0.83553812  0.93224819    -0.88300
H1703       H  0.96260372  0.71844684  0.98369715     0.35800
H1704       H  0.97586817  0.77062575  0.99198712     0.40900
H1705       H  0.10170465  0.83110039  0.92071061     0.40500
H1706       H  0.14028566  0.82097410  0.93074439     0.35400
C1707       C  0.18421374  0.85573742  0.78191087    -0.26300
C1708       C  0.17713290  0.81705572  0.79079015    -0.14400
C1709       C  0.21043366  0.82168486  0.80268441     0.36300
C1710       C  0.25320653  0.86254565  0.80320076    -0.25700
C1711       C  0.26332466  0.89801855  0.79181345    -0.15000
C1712       C  0.22736357  0.89624261  0.78221530     0.37300
N1713       N  0.23536636  0.93399819  0.77181339    -0.89200
H1714       H  0.15815112  0.85310842  0.77324121     0.18500
H1715       H  0.28014440  0.86456266  0.81121536     0.18400
N1716       N  0.20221345  0.78367189  0.81310020    -0.88300
H1717       H  0.21171172  0.94437111  0.77579053     0.35800
H1718       H  0.22862636  0.92218073  0.75888492     0.40900
H1719       H  0.17464147  0.77700128  0.82162336     0.40500
H1720       H  0.23078808  0.79244453  0.82077828     0.35400
C1721       C  0.19390996  0.71433673  0.71735999    -0.26300
C1722       C  0.18461740  0.68613021  0.73164785    -0.14400
C1723       C  0.20822495  0.66128829  0.73261832     0.36300
C1724       C  0.23512456  0.66015366  0.71820804    -0.25700
C1725       C  0.23801160  0.68263871  0.70286300    -0.15000
C1726       C  0.22037323  0.71293563  0.70310472     0.37300
N1727       N  0.22839832  0.74162473  0.68863462    -0.89200
H1728       H  0.17864206  0.73602844  0.71676431     0.18500
H1729       H  0.25209136  0.64020161  0.71877453     0.18400
N1730       N  0.20443378  0.63698121  0.74803687    -0.88300
H1731       H  0.19632192  0.73405871  0.68393147     0.35800
H1732       H  0.24552975  0.77594301  0.69314220     0.40900
H1733       H  0.21923617  0.66149513  0.75814911     0.40500
H1734       H  0.22400788  0.62066030  0.74662865     0.35400
C1735       C  0.04674183  0.60595950  0.82909228    -0.26300
C1736       C  0.03032469  0.63157130  0.82106471    -0.14400
C1737       C  0.00567915  0.64843333  0.83144235     0.36300
C1738       C  0.00285028  0.64387306  0.84946894    -0.25700
C1739       C  0.02446606  0.62343481  0.85765645    -0.15000
C1740       C  0.04387538  0.60144636  0.84724220     0.37300
N1741       N  0.06249075  0.57637619  0.85512744    -0.89200
H1742       H  0.06431152  0.59158239  0.82131947     0.18500
H1743       H  0.98652991  0.65964661  0.85719617     0.18400
N1744       N  0.98442889  0.67180773  0.82430329    -0.88300
H1745       H  0.07621412  0.56309995  0.84568708     0.35800
H1746       H  0.03495719  0.54803779  0.86114497     0.40900
H1747       H  0.96249874  0.65114514  0.81433179     0.40500
H1748       H  0.01002034  0.70330099  0.81944883     0.35400
C1749       C  0.87285997  0.62271318  0.75003932    -0.26300
C1750       C  0.87491280  0.66267692  0.74416877    -0.14400
C1751       C  0.91611222  0.69675036  0.73625541     0.36300
C1752       C  0.95604763  0.69312971  0.73662387    -0.25700
C1753       C  0.95570819  0.65666271  0.74501699    -0.15000
C1754       C  0.91309356  0.61975031  0.75081665     0.37300
N1755       N  0.91114119  0.58143950  0.75909734    -0.89200
H1756       H  0.84117500  0.59593769  0.75587961     0.18500
H1757       H  0.98846537  0.72099861  0.73169779     0.18400
N1758       N  0.91805796  0.73640508  0.72898408    -0.88300
H1759       H  0.88756053  0.55129109  0.75242362     0.35800
H1760       H  0.89839559  0.58023974  0.77177597     0.40900
H1761       H  0.89575301  0.72481339  0.71844281     0.40500
H1762       H  0.95121239  0.75873306  0.72404388     0.35400
C1763       C  0.26741259  0.40020186  0.93795831    -0.26300
C1764       C  0.23762810  0.38992140  0.92397812    -0.14400
C1765       C  0.25025116  0.37928059  0.90744543     0.36300
C1766       C  0.29010982  0.37614042  0.90555054    -0.25700
C1767       C  0.31776971  0.38222968  0.91979774    -0.15000
C1768       C  0.30704315  0.39607470  0.93611476     0.37300
N1769       N  0.33420947  0.40415947  0.95119214    -0.89200
H1770       H  0.25843039  0.40881651  0.95066346     0.18500
H1771       H  0.29827541  0.36673372  0.89283952     0.18400
N1772       N  0.22332541  0.37117022  0.89227579    -0.88300
H1773       H  0.36805916  0.43041487  0.94860399     0.35800
H1774       H  0.33428232  0.37395365  0.95384921     0.40900
H1775       H  0.21780064  0.39886634  0.89097182     0.40500
H1776       H  0.19159677  0.34074359  0.89359399     0.35400
C1777       C  0.06161949  0.22122872  0.96288457    -0.26300
C1778       C  0.06631994  0.26261381  0.96974876    -0.14400
C1779       C  0.07122937  0.27134996  0.98781626     0.36300
C1780       C  0.07394020  0.24004268  0.99851162    -0.25700
C1781       C  0.07215824  0.19962537  0.99157144    -0.15000
C1782       C  0.06460099  0.19001350  0.97349910     0.37300
N1783       N  0.06085647  0.14876024  0.96573997    -0.89200
H1784       H  0.05769816  0.21382280  0.94902519     0.18500
H1785       H  0.07761513  0.24850481  0.01219954     0.18400
N1786       N  0.07362482  0.31213549  0.99543539    -0.88300
H1787       H  0.02883326  0.13029578  0.95967592     0.35800
H1788       H  0.08681842  0.15814686  0.95618602     0.40900
H1789       H  0.10490159  0.33073717  0.00198881     0.40500
H1790       H  0.04664769  0.30211423  0.00458913     0.35400
C1791       C  0.02048954  0.46555777  0.94076844    -0.26300
C1792       C  0.06271815  0.47350485  0.94722069    -0.14400
C1793       C  0.09568746  0.51849337  0.95288112     0.36300
C1794       C  0.08883281  0.55531955  0.94941452    -0.25700
C1795       C  0.04968569  0.54807950  0.94045736    -0.15000
C1796       C  0.01378966  0.50242222  0.93725137     0.37300
N1797       N  0.97170515  0.49324524  0.92942867    -0.89200
H1798       H  0.99407890  0.43096500  0.93692661     0.18500
H1799       H  0.11587518  0.59013302  0.95263151     0.18400
N1800       N  0.13707193  0.52696493  0.96125716    -0.88300
H1801       H  0.94421122  0.47232111  0.93772551     0.35800
H1802       H  0.96798855  0.47466416  0.91777717     0.40900
H1803       H  0.12707499  0.50993464  0.97303881     0.40500
H1804       H  0.15805409  0.56204591  0.96434683     0.35400
C1805       C  0.25138826  0.31967984  0.79268553    -0.26300
C1806       C  0.24937571  0.28857162  0.77947379    -0.14400
C1807       C  0.20747218  0.26156602  0.77049511     0.36300
C1808       C  0.17015045  0.26861800  0.77405297    -0.25700
C1809       C  0.17356182  0.30220767  0.78635969    -0.15000
C1810       C  0.21384855  0.32646162  0.79635118     0.37300
N1811       N  0.21683220  0.35841451  0.80997631    -0.89200
H1812       H  0.28286730  0.33964627  0.79997964     0.18500
H1813       H  0.13914046  0.24934697  0.76644371     0.18400
N1814       N  0.20235925  0.22848123  0.75712356    -0.88300
H1815       H  0.24899703  0.37370512  0.81595135     0.35800
H1816       H  0.19203308  0.33951106  0.81948923     0.40900
H1817       H  0.20751228  0.20341633  0.76249754     0.40500
H1818       H  0.22737293  0.24522510  0.74741289     0.35400
C1819       C  0.17588071  0.42101279  0.73531968    -0.26300
C1820       C  0.15469783  0.43991266  0.74609087    -0.14400
C1821       C  0.16539084  0.48559573  0.74345810     0.36300
C1822       C  0.19557447  0.51048335  0.72955003    -0.25700
C1823       C  0.21520905  0.49040261  0.71821380    -0.15000
C1824       C  0.20569092  0.44535982  0.72170279     0.37300
N1825       N  0.22563850  0.42343466  0.71112529    -0.89200
H1826       H  0.16920565  0.38646044  0.73740043     0.18500
H1827       H  0.20271741  0.54506526  0.72760090     0.18400
N1828       N  0.14502869  0.50619025  0.75461530    -0.88300
H1829       H  0.19871792  0.39252677  0.70602448     0.35800
H1830       H  0.24505966  0.41538881  0.71909666     0.40900
H1831       H  0.10929770  0.48762767  0.75272794     0.40500
H1832       H  0.15639191  0.53989557  0.75097998     0.35400
C1833       C  0.07092151  0.39537849  0.85086216    -0.26300
C1834       C  0.05196415  0.35233635  0.84220315    -0.14400
C1835       C  0.03387585  0.31212542  0.85212209     0.36300
C1836       C  0.03899110  0.31625005  0.87027399    -0.25700
C1837       C  0.06173151  0.35962341  0.87878359    -0.15000
C1838       C  0.07633248  0.39953086  0.86890328     0.37300
N1839       N  0.09705988  0.44487949  0.87671383    -0.89200
H1840       H  0.08407131  0.42641018  0.84348290     0.18500
H1841       H  0.02682654  0.28545059  0.87770626     0.18400
N1842       N  0.01119756  0.26725580  0.84371038    -0.88300
H1843       H  0.12905511  0.45344318  0.88175706     0.35800
H1844       H  0.07525011  0.44512933  0.88673420     0.40900
H1845       H  0.98124639  0.26285015  0.83804882     0.40500
H1846       H  0.00039913  0.24139828  0.85279737     0.35400
C1847       C  0.69783866  0.80923738  0.88962454    -0.26300
C1848       C  0.67699078  0.81827370  0.90424428    -0.14400
C1849       C  0.65759155  0.78559642  0.91741184     0.36300
C1850       C  0.66599431  0.74877855  0.91711292    -0.25700
C1851       C  0.69354984  0.74431211  0.90389309    -0.15000
C1852       C  0.70671894  0.77269847  0.88936413     0.37300
N1853       N  0.73122162  0.76594515  0.87487866    -0.89200
H1854       H  0.71122337  0.83315542  0.87907721     0.18500
H1855       H  0.65406784  0.72595416  0.92800657     0.18400
N1856       N  0.63190161  0.79114200  0.93164267    -0.88300
H1857       H  0.73899983  0.79031539  0.86540980     0.35800
H1858       H  0.70898475  0.73370356  0.86914562     0.40900
H1859       H  0.64864398  0.79337904  0.94314628     0.40500
H1860       H  0.59914304  0.76153977  0.93203008     0.35400
C1861       C  0.58749296  0.96044475  0.94689586    -0.26300
C1862       C  0.62498309  0.99385697  0.93724479    -0.14400
C1863       C  0.62127826  0.03009343  0.93016464     0.36300
C1864       C  0.57883164  0.02932787  0.93150268    -0.25700
C1865       C  0.53990016  0.99282299  0.93941311    -0.15000
C1866       C  0.54510097  0.95945202  0.94794845     0.37300
N1867       N  0.50680574  0.92315094  0.95702885    -0.89200
H1868       H  0.58994333  0.93295338  0.95269997     0.18500
H1869       H  0.57516328  0.05526820  0.92502002     0.18400
N1870       N  0.65916174  0.06547385  0.92046210    -0.88300
H1871       H  0.51649138  0.92440986  0.96987647     0.35800
H1872       H  0.50041378  0.89169636  0.95135456     0.40900
H1873       H  0.68573679  0.08516103  0.92918278     0.40500
H1874       H  0.64981305  0.08790768  0.91534909     0.35400
C1875       C  0.88999674  0.94844775  0.95823446    -0.26300
C1876       C  0.91024937  0.98593674  0.97017455    -0.14400
C1877       C  0.90039832  0.02216956  0.96857105     0.36300
C1878       C  0.86889142  0.01875524  0.95632546    -0.25700
C1879       C  0.84597932  0.97986649  0.94535925    -0.15000
C1880       C  0.85808342  0.94500681  0.94585947     0.37300
N1881       N  0.83689924  0.90541728  0.93425208    -0.89200
H1882       H  0.89706911  0.92057582  0.95890153     0.18500
H1883       H  0.86073037  0.04610339  0.95604681     0.18400
N1884       N  0.91998090  0.06148930  0.98026251    -0.88300
H1885       H  0.84822041  0.88235290  0.93671169     0.35800
H1886       H  0.84833445  0.91691025  0.92166231     0.40900
H1887       H  0.89296709  0.06290545  0.98697085     0.40500
H1888       H  0.93790475  0.09110682  0.97290986     0.35400
C1889       C  0.76697179  0.87945503  0.79016830    -0.26300
C1890       C  0.78727888  0.91033461  0.77652870    -0.14400
C1891       C  0.81473288  0.90304418  0.76385703     0.36300
C1892       C  0.81931091  0.86384073  0.76468879    -0.25700
C1893       C  0.79568074  0.83110743  0.77748621    -0.15000
C1894       C  0.77082335  0.83988581  0.79077883     0.37300
N1895       N  0.74845038  0.80790016  0.80453923    -0.89200
H1896       H  0.74666709  0.88539843  0.80011171     0.18500
H1897       H  0.83832257  0.85696336  0.75446893     0.18400
N1898       N  0.83543918  0.93364685  0.74960466    -0.88300
H1899       H  0.73113528  0.81919695  0.81316272     0.35800
H1900       H  0.77430505  0.80746904  0.81161040     0.40900
H1901       H  0.80860207  0.93005738  0.74193582     0.40500
H1902       H  0.85514411  0.92375684  0.74166609     0.35400
C1903       C  0.57143802  0.88948122  0.71753307    -0.26300
C1904       C  0.58692299  0.86490563  0.70662029    -0.14400
C1905       C  0.63118825  0.87104356  0.70977188     0.36300
C1906       C  0.65961904  0.90306478  0.72237046    -0.25700
C1907       C  0.64524931  0.92920458  0.73261770    -0.15000
C1908       C  0.60016164  0.92162249  0.73043778     0.37300
N1909       N  0.58374362  0.94661350  0.74117793    -0.89200
H1910       H  0.53692713  0.88358946  0.71636050     0.18500
H1911       H  0.69336744  0.90695254  0.72427103     0.18400
N1912       N  0.64759929  0.84442822  0.70017035    -0.88300
H1913       H  0.54974448  0.93669806  0.73808382     0.35800
H1914       H  0.60401868  0.98145906  0.73825351     0.40900
H1915       H  0.65455832  0.82600279  0.70899722     0.40500
H1916       H  0.67863748  0.86711941  0.69386168     0.35400
C1917       C  0.93105614  0.21089280  0.75449524    -0.26300
C1918       C  0.93299638  0.24243339  0.76742392    -0.14400
C1919       C  0.89200989  0.23375572  0.77643455     0.36300
C1920       C  0.85097364  0.19128552  0.77351716    -0.25700
C1921       C  0.85060029  0.15752216  0.76194114    -0.15000
C1922       C  0.89036770  0.16881779  0.75162818     0.37300
N1923       N  0.89019265  0.13686739  0.73867293    -0.89200
H1924       H  0.96212208  0.21780514  0.74720132     0.18500
H1925       H  0.82041545  0.18308543  0.78137929     0.18400
N1926       N  0.89284513  0.26638932  0.78932009    -0.88300
H1927       H  0.91588332  0.12936171  0.74166243     0.35800
H1928       H  0.89895291  0.15306434  0.72671939     0.40900
H1929       H  0.91336326  0.26782257  0.79951187     0.40500
H1930       H  0.85970931  0.25494301  0.79459490     0.35400
C1931       C  0.78243427  0.04329700  0.83644382    -0.26300
C1932       C  0.74067525  0.02821548  0.82776977    -0.14400
C1933       C  0.69904897  0.01025173  0.83758103     0.36300
C1934       C  0.69970235  0.00340031  0.85542155    -0.25700
C1935       C  0.74100491  0.01443811  0.86373415    -0.15000
C1936       C  0.78310221  0.03647830  0.85415086     0.37300
N1937       N  0.82686305  0.05020824  0.86167709    -0.89200
H1938       H  0.81496160  0.05832613  0.82923149     0.18500
H1939       H  0.66734628  0.98776590  0.86274160     0.18400
N1940       N  0.65606799  0.99708384  0.82936330    -0.88300
H1941       H  0.82611630  0.02112656  0.86638342     0.35800
H1942       H  0.83246194  0.07376339  0.87191984     0.40900
H1943       H  0.65810629  0.02715158  0.82506339     0.40500
H1944       H  0.62855860  0.98304419  0.83835497     0.35400
loop_ 
_geom_bond_atom_site_label_1 
_geom_bond_atom_site_label_2 
_geom_bond_distance 
_geom_bond_site_symmetry_2 
_ccdc_geom_bond_type 
O1            C4   1.265       .  A
O1           Cd6   2.436       .  S
C2           O11   1.265       .  A
C2            O7   1.268       .  A
C2         C1890   1.480       .  S
O3            C9   1.273       .  A
O3           Cd6   2.494       .  S
C4           O12   1.268       .  A
C4         C1921   1.485       .  S
C5           O10   1.271       .  A
C5            O8   1.263       .  A
C5         C1907   1.491       .  S
Cd6          O13   2.398       .  S
Cd6          O12   2.496       .  S
Cd6          O11   2.430   1_545  S
Cd6           O7   2.472   1_545  S
Cd6          O10   2.543   1_545  S
Cd6           O8   2.421   1_545  S
C9           O13   1.264       .  A
C9         C1932   1.485       .  S
O14          C17   1.269   1_545  A
O14         Cd19   2.482   1_545  S
C15          O24   1.259       .  A
C15          O20   1.269   1_565  A
C15        C1879   1.495       .  S
O16          C22   1.266       .  A
O16         Cd19   2.459       .  S
C17          O25   1.263       .  A
C17        C1935   1.484   1_565  S
C18          O23   1.269       .  A
C18          O21   1.266       .  A
C18        C1848   1.476       .  S
Cd19         O26   2.457   1_565  S
Cd19         O25   2.420       .  S
Cd19         O24   2.478       .  S
Cd19         O20   2.512   1_565  S
Cd19         O23   2.445       .  S
Cd19         O21   2.409       .  S
C22          O26   1.264   1_565  A
C22        C1862   1.486       .  S
O27          C30   1.262   1_455  A
O27         Cd32   2.407       .  S
C28          O37   1.266       .  A
C28          O33   1.266       .  A
C28        C1809   1.478       .  S
O29          C35   1.271       .  A
O29         Cd32   2.550       .  S
C30          O38   1.269       .  A
C30        C1918   1.477       .  S
C31          O36   1.272       .  A
C31          O34   1.262       .  A
C31        C1834   1.486       .  S
Cd32         O39   2.392       .  S
Cd32         O38   2.511   1_455  S
Cd32         O37   2.434       .  S
Cd32         O33   2.454       .  S
Cd32         O36   2.514       .  S
Cd32         O34   2.417       .  S
C35          O39   1.261       .  A
C35        C1820   1.488       .  S
O40          C43   1.272       .  A
O40         Cd45   2.502       .  S
C41          O50   1.264       .  A
C41          O46   1.268       .  A
C41        C1778   1.481       .  S
O42          C48   1.268       .  A
O42         Cd45   2.505       .  S
C43          O51   1.264       .  A
C43        C1837   1.488       .  S
C44          O49   1.268       .  A
C44          O47   1.267       .  A
C44        C1792   1.482       .  S
Cd45         O52   2.400       .  S
Cd45         O51   2.423       .  S
Cd45         O50   2.440       .  S
Cd45         O46   2.470       .  S
Cd45         O49   2.448       .  S
Cd45         O47   2.454       .  S
C48          O52   1.260       .  A
C48        C1764   1.478       .  S
O53          C56   1.265       .  A
O53         Cd58   2.415       .  S
C54          O63   1.264       .  A
C54          O59   1.268       .  A
C54        C1708   1.470       .  S
O55          C61   1.274       .  A
O55         Cd58   2.503       .  S
C56          O64   1.269       .  A
C56        C1753   1.479   1_455  S
C57          O62   1.272       .  A
C57          O60   1.263       .  A
C57        C1722   1.492       .  S
Cd58         O65   2.407       .  S
Cd58         O64   2.478       .  S
Cd58         O63   2.387       .  S
Cd58         O59   2.452       .  S
Cd58         O62   2.532       .  S
Cd58         O60   2.426       .  S
C61          O65   1.262       .  A
C61        C1736   1.491       .  S
O66          C69   1.265       .  A
O66         Cd71   2.432       .  S
C67          O76   1.269       .  A
C67          O72   1.263       .  A
C67        C1795   1.488       .  S
O68          C74   1.270       .  A
O68         Cd71   2.505       .  S
C69          O77   1.265       .  A
C69        C1680   1.476       .  S
C70          O75   1.269       .  A
C70          O73   1.262       .  A
C70        C1739   1.488       .  S
Cd71         O78   2.474       .  S
Cd71         O77   2.440       .  S
Cd71         O76   2.505       .  S
Cd71         O72   2.433       .  S
Cd71         O75   2.497       .  S
Cd71         O73   2.439       .  S
C74          O78   1.259       .  A
C74        C1694   1.496       .  S
O79          C82   1.261       .  A
O79         Cd84   2.408   1_545  S
C80          O89   1.264       .  A
C80          O85   1.264       .  A
C80        C1711   1.472       .  S
O81          C87   1.272       .  A
O81         Cd84   2.521       .  S
C82          O90   1.270       .  A
C82        C1655   1.490       .  S
C83          O88   1.269   1_545  A
C83          O86   1.263       .  A
C83        C1669   1.493       .  S
Cd84         O91   2.479       .  S
Cd84         O90   2.519   1_565  S
Cd84         O89   2.423       .  S
Cd84         O85   2.435       .  S
Cd84         O88   2.501       .  S
Cd84         O86   2.446   1_565  S
C87          O91   1.261       .  A
C87        C1638   1.495       .  S
O92          C95   1.263       .  A
O92         Cd97   2.433       .  S
C93         O102   1.264       .  A
C93          O98   1.266       .  A
C93        C1683   1.472       .  S
O94         C100   1.270   1_545  A
O94         Cd97   2.548   1_545  S
C95         O103   1.269   1_565  A
C95        C1865   1.482       .  S
C96         O101   1.273   1_565  A
C96          O99   1.265       .  A
C96        C1666   1.494   1_565  S
Cd97        O104   2.436       .  S
Cd97        O103   2.486   1_565  S
Cd97        O102   2.409       .  S
Cd97         O98   2.458       .  S
Cd97        O101   2.505   1_565  S
Cd97         O99   2.430       .  S
C100        O104   1.262       .  A
C100       C1624   1.500       .  S
O105        C108   1.270       .  A
O105       Cd110   2.482       .  S
C106        O115   1.267       .  A
C106        O111   1.269       .  A
C106       C1652   1.490       .  S
O107        C113   1.270       .  A
O107       Cd110   2.483       .  S
C108        O116   1.264       .  A
C108       C1806   1.482       .  S
C109        O114   1.272       .  A
C109        O112   1.264       .  A
C109       C1610   1.482       .  S
Cd110       O117   2.443       .  S
Cd110       O116   2.414       .  S
Cd110       O115   2.468       .  S
Cd110       O111   2.451       .  S
Cd110       O114   2.490       .  S
Cd110       O112   2.412       .  S
C113        O117   1.265       .  A
C113       C1599   1.490       .  S
O118        C121   1.265       .  A
O118       Cd123   2.447       .  S
C119        O128   1.264       .  A
C119        O124   1.265       .  A
C119       C1767   1.482       .  S
O120        C126   1.270       .  A
O120       Cd123   2.506       .  S
C121        O129   1.269       .  A
C121       C1582   1.488       .  S
C122        O127   1.263       .  A
C122        O125   1.265       .  A
C122       C1568   1.493       .  S
Cd123       O130   2.440       .  S
Cd123       O129   2.495       .  S
Cd123       O128   2.419       .  S
Cd123       O124   2.480       .  S
Cd123       O127   2.493       .  S
Cd123       O125   2.485       .  S
C126        O130   1.263       .  A
C126       C1613   1.488       .  S
O131        C134   1.270       .  A
O131       Cd136   2.497       .  S
C132        O141   1.263       .  A
C132        O137   1.270       .  A
C132       C1540   1.490       .  S
O133        C139   1.268       .  A
O133       Cd136   2.462       .  S
C134        O142   1.264       .  A
C134       C1554   1.492       .  S
C135        O140   1.265       .  A
C135        O138   1.268       .  A
C135       C1750   1.477       .  S
Cd136       O143   2.416       .  S
Cd136       O142   2.440       .  S
Cd136       O141   2.431       .  S
Cd136       O137   2.490       .  S
Cd136       O140   2.424       .  S
Cd136       O138   2.468       .  S
C139        O143   1.265       .  A
C139       C1893   1.474       .  S
O144        C147   1.262       .  A
O144       Cd149   2.431       .  S
C145        O154   1.265       .  A
C145        O150   1.265       .  A
C145       C1851   1.472       .  S
O146        C152   1.272       .  A
O146       Cd149   2.582       .  S
C147        O155   1.270       .  A
C147       C1585   1.486       .  S
C148        O153   1.271       .  A
C148        O151   1.262       .  A
C148       C1557   1.493       .  S
Cd149       O156   2.420       .  S
Cd149       O155   2.506       .  S
Cd149       O154   2.428       .  S
Cd149       O150   2.439       .  S
Cd149       O153   2.516       .  S
Cd149       O151   2.430       .  S
C152        O156   1.261       .  A
C152       C1526   1.503       .  S
C157        C158   1.517       .  S
C157        C163   1.534       .  S
C157        C161   1.522       .  S
C157       C1512   1.554       .  S
C158        H165   1.084   1_554  S
C158        C159   1.366   1_554  D
C159        C160   1.561   1_556  S
C159       C1697   1.485       .  S
C160        C164   1.547       .  S
C160        C162   1.569       .  S
C160        H166   1.109   1_554  S
C161        H167   1.079       .  S
C161        C162   1.374       .  D
C162        C207   1.521       .  S
C163        H168   1.082       .  S
C163        C164   1.378       .  D
C164        C224   1.514   1_455  S
C169        C170   1.536   1_554  S
C169        C175   1.520       .  S
C169        C173   1.514       .  S
C169       C1781   1.538   1_554  S
C170        H177   1.083       .  S
C170        C171   1.374   1_556  D
C171        C172   1.559       .  S
C171        C183   1.514       .  S
C172        C176   1.571       .  S
C172        C174   1.571       .  S
C172        H178   1.109       .  S
C173        H179   1.085   1_554  S
C173        C174   1.370       .  D
C174        C198   1.522       .  S
C175        H180   1.081       .  S
C175        C176   1.364       .  D
C176       C1498   1.494       .  S
C181        C182   1.542       .  S
C181        C187   1.517       .  S
C181        C185   1.542   1_556  S
C181       C1571   1.548       .  S
C182        H189   1.082       .  S
C182        C183   1.381   1_556  D
C183        C184   1.552       .  S
C184        C188   1.570       .  S
C184        C186   1.549       .  S
C184        H190   1.107       .  S
C185        H191   1.083       .  S
C185        C186   1.366       .  D
C186       C1487   1.508       .  S
C187        H192   1.079       .  S
C187        C188   1.358   1_556  D
C188        C212   1.492       .  S
C193        C194   1.531   1_556  S
C193        C199   1.543       .  S
C193        C197   1.517   1_565  S
C193       C1876   1.540       .  S
C194        H201   1.085       .  S
C194        C195   1.352       .  D
C195        C196   1.548       .  S
C195       C1470   1.495       .  S
C196        C200   1.565       .  S
C196        C198   1.568   1_665  S
C196        H202   1.110       .  S
C197        H203   1.086       .  S
C197        C198   1.373   1_656  D
C199        H204   1.083       .  S
C199        C200   1.378   1_556  D
C200        C219   1.496       .  S
C205        C206   1.534       .  S
C205        C211   1.523   1_565  S
C205        C209   1.534       .  S
C205       C1459   1.546   1_565  S
C206        H213   1.079       .  S
C206        C207   1.376       .  D
C207        C208   1.559       .  S
C208        C212   1.578   1_565  S
C208        C210   1.546       .  S
C208        H214   1.110   1_554  S
C209        H215   1.087       .  S
C209        C210   1.361       .  D
C210       C1627   1.500   1_554  S
C211        H216   1.082       .  S
C211        C212   1.366       .  D
C217        C218   1.540       .  S
C217        C223   1.523       .  S
C217        C221   1.533       .  S
C217       C1442   1.545       .  S
C218        H225   1.076       .  S
C218        C219   1.373       .  D
C219        C220   1.561       .  S
C220        C224   1.568       .  S
C220        C222   1.548   1_554  S
C220        H226   1.110   1_554  S
C221        H227   1.088       .  S
C221        C222   1.360   1_554  D
C222       C1529   1.501       .  S
C223        H228   1.083       .  S
C223        C224   1.369       .  D
O229        C232   1.269   1_565  A
O229       Cd234   2.499   1_565  S
C230        O239   1.268   1_545  A
C230        O235   1.261       .  A
C230       C1456   1.496       .  S
O231        C237   1.266       .  A
O231       Cd234   2.466       .  S
C232        O240   1.266       .  A
C232       C1431   1.498   1_545  S
C233        O238   1.263       .  A
C233        O236   1.266   1_545  A
C233       C1414   1.485   1_545  S
Cd234       O241   2.419       .  S
Cd234       O240   2.461       .  S
Cd234       O239   2.524   1_545  S
Cd234       O235   2.452       .  S
Cd234       O238   2.441       .  S
Cd234       O236   2.499   1_545  S
C237        O241   1.265       .  A
C237       C1400   1.472       .  S
O242        C245   1.261       .  A
O242       Cd247   2.448       .  S
C243        O252   1.264       .  A
C243        O248   1.265       .  A
C243       C1361   1.477       .  S
O244        C250   1.270       .  A
O244       Cd247   2.579   1_545  S
C245        O253   1.267       .  A
C245       C1386   1.487       .  S
C246        O251   1.270       .  A
C246        O249   1.265       .  A
C246       C1428   1.495       .  S
Cd247       O254   2.461   1_565  S
Cd247       O253   2.504       .  S
Cd247       O252   2.444   1_565  S
Cd247       O248   2.468   1_565  S
Cd247       O251   2.502       .  S
Cd247       O249   2.474       .  S
C250        O254   1.261       .  A
C250       C1375   1.506       .  S
O255        C258   1.265       .  A
O255       Cd260   2.454       .  S
C256        O265   1.263       .  A
C256        O261   1.266       .  A
C256       C1316   1.479   1_455  S
O257        C263   1.268       .  A
O257       Cd260   2.506       .  S
C258        O266   1.268       .  A
C258       C1389   1.489       .  S
C259        O264   1.262   1_455  A
C259        O262   1.268       .  A
C259       C1333   1.497   1_455  S
Cd260       O267   2.440       .  S
Cd260       O266   2.492       .  S
Cd260       O265   2.444       .  S
Cd260       O261   2.458       .  S
Cd260       O264   2.471   1_455  S
Cd260       O262   2.523       .  S
C263        O267   1.263       .  A
C263       C1344   1.492       .  S
O268        C271   1.271       .  A
O268       Cd273   2.484   1_655  S
C269        O278   1.266       .  A
C269        O274   1.269       .  A
C269       C1305   1.482       .  S
O270        C276   1.270       .  A
O270       Cd273   2.499       .  S
C271        O279   1.265       .  A
C271       C1288   1.483       .  S
C272        O277   1.272       .  A
C272        O275   1.266       .  A
C272       C1347   1.490       .  S
Cd273       O280   2.437       .  S
Cd273       O279   2.410   1_455  S
Cd273       O278   2.454       .  S
Cd273       O274   2.456       .  S
Cd273       O277   2.477       .  S
Cd273       O275   2.431       .  S
C276        O280   1.265       .  A
C276       C1515   1.492       .  S
O281        C284   1.267       .  A
O281       Cd286   2.460       .  S
C282        O291   1.268       .  A
C282        O287   1.263   1_565  A
C282       C1417   1.488       .  S
O283        C289   1.269       .  A
O283       Cd286   2.520   1_565  S
C284        O292   1.263       .  A
C284       C1263   1.470       .  S
C285        O290   1.271       .  A
C285        O288   1.262   1_565  A
C285       C1277   1.485       .  S
Cd286       O293   2.469       .  S
Cd286       O292   2.403       .  S
Cd286       O291   2.468   1_545  S
Cd286       O287   2.438       .  S
Cd286       O290   2.503   1_545  S
Cd286       O288   2.432       .  S
C289        O293   1.261   1_565  A
C289       C1473   1.495       .  S
O294        C297   1.265       .  A
O294       Cd299   2.435       .  S
C295        O304   1.267       .  A
C295        O300   1.265       .  A
C295       C1246   1.490       .  S
O296        C302   1.267       .  A
O296       Cd299   2.510       .  S
C297        O305   1.266       .  A
C297       C1218   1.470       .  S
C298        O303   1.269   1_565  A
C298        O301   1.261       .  A
C298       C1274   1.491       .  S
Cd299       O306   2.509       .  S
Cd299       O305   2.438       .  S
Cd299       O304   2.470   1_545  S
Cd299       O300   2.467   1_545  S
Cd299       O303   2.525       .  S
Cd299       O301   2.431   1_545  S
C302        O306   1.263       .  A
C302       C1232   1.503       .  S
O307        C310   1.261       .  A
O307       Cd312   2.418       .  S
C308        O317   1.266   1_655  A
C308        O313   1.263   1_655  A
C308       C1260   1.474       .  S
O309        C315   1.270       .  A
O309       Cd312   2.510       .  S
C310        O318   1.270       .  A
C310       C1302   1.487       .  S
C311        O316   1.271       .  A
C311        O314   1.261       .  A
C311       C1207   1.494       .  S
Cd312       O319   2.485       .  S
Cd312       O318   2.506       .  S
Cd312       O317   2.435       .  S
Cd312       O313   2.427       .  S
Cd312       O316   2.505       .  S
Cd312       O314   2.452       .  S
C315        O319   1.263       .  A
C315       C1501   1.498       .  S
O320        C323   1.262       .  A
O320       Cd325   2.435       .  S
C321        O330   1.266       .  A
C321        O326   1.267       .  A
C321       C1221   1.467   1_455  S
O322        C328   1.273   1_455  A
O322       Cd325   2.572       .  S
C323        O331   1.267       .  A
C323       C1193   1.485       .  S
C324        O329   1.273       .  A
C324        O327   1.262       .  A
C324       C1204   1.487       .  S
Cd325       O332   2.398   1_455  S
Cd325       O331   2.483       .  S
Cd325       O330   2.402       .  S
Cd325       O326   2.442       .  S
Cd325       O329   2.508       .  S
Cd325       O327   2.410       .  S
C328        O332   1.258       .  A
C328       C1176   1.495       .  S
O333        C336   1.266       .  A
O333       Cd338   2.445       .  S
C334        O343   1.263       .  A
C334        O339   1.265       .  A
C334       C1403   1.480       .  S
O335        C341   1.268       .  A
O335       Cd338   2.483       .  S
C336        O344   1.268       .  A
C336       C1148   1.487       .  S
C337        O342   1.262       .  A
C337        O340   1.268       .  A
C337       C1484   1.490       .  S
Cd338       O345   2.447       .  S
Cd338       O344   2.482       .  S
Cd338       O343   2.441       .  S
Cd338       O339   2.459       .  S
Cd338       O342   2.481       .  S
Cd338       O340   2.504       .  S
C341        O345   1.263       .  A
C341       C1165   1.487       .  S
O346        C349   1.268       .  A
O346       Cd351   2.456       .  S
C347        O356   1.265       .  A
C347        O352   1.265       .  A
C347       C1190   1.482       .  S
O348        C354   1.267       .  A
O348       Cd351   2.486       .  S
C349        O357   1.266       .  A
C349       C1358   1.478       .  S
C350        O355   1.268       .  A
C350        O353   1.264       .  A
C350       C1162   1.490       .  S
Cd351       O358   2.484       .  S
Cd351       O357   2.425       .  S
Cd351       O356   2.466       .  S
Cd351       O352   2.455       .  S
Cd351       O355   2.496       .  S
Cd351       O353   2.448       .  S
C354        O358   1.260       .  A
C354       C1134   1.490       .  S
O359        C362   1.271       .  A
O359       Cd364   2.511       .  S
C360        O369   1.265       .  A
C360        O365   1.265       .  A
C360       C1106   1.500       .  S
O361        C367   1.266       .  A
O361       Cd364   2.457       .  S
C362        O370   1.263       .  A
C362       C1123   1.489       .  S
C363        O368   1.267       .  A
C363        O366   1.269       .  A
C363       C1249   1.485       .  S
Cd364       O371   2.425       .  S
Cd364       O370   2.426       .  S
Cd364       O369   2.478       .  S
Cd364       O365   2.509       .  S
Cd364       O368   2.454       .  S
Cd364       O366   2.481       .  S
C367        O371   1.263       .  A
C367       C1319   1.477       .  S
O372        C375   1.263       .  A
O372       Cd377   2.432       .  S
C373        O382   1.263       .  A
C373        O378   1.266       .  A
C373       C1291   1.482       .  S
O374        C380   1.268       .  A
O374       Cd377   2.530       .  S
C375        O383   1.268       .  A
C375       C1151   1.484       .  S
C376        O381   1.269       .  A
C376        O379   1.266       .  A
C376       C1120   1.489       .  S
Cd377       O384   2.412       .  S
Cd377       O383   2.508       .  S
Cd377       O382   2.424       .  S
Cd377       O378   2.492       .  S
Cd377       O381   2.481       .  S
Cd377       O379   2.456       .  S
C380        O384   1.261       .  A
C380       C1445   1.485       .  S
C385        C386   1.521       .  S
C385        C391   1.537       .  S
C385        C389   1.538       .  S
C385       C1092   1.549       .  S
C386        H393   1.066       .  S
C386        C387   1.363       .  D
C387        C388   1.564       .  S
C387        C428   1.496       .  S
C388        C392   1.561       .  S
C388        C390   1.555       .  S
C388        H394   1.110       .  S
C389        H395   1.087       .  S
C389        C390   1.362       .  D
C390       C1372   1.500       .  S
C391        H396   1.076       .  S
C391        C392   1.371       .  D
C392        C512   1.515       .  S
C397        C398   1.526       .  S
C397        C403   1.529       .  S
C397        C401   1.532       .  S
C397       C1823   1.540       .  S
C398        H405   1.076       .  S
C398        C399   1.367       .  D
C399        C400   1.574       .  S
C399        C488   1.489       .  S
C400        C404   1.559       .  S
C400        C402   1.559       .  S
C400        H406   1.110       .  S
C401        H407   1.086       .  S
C401        C402   1.363       .  D
C402       C1081   1.515       .  S
C403        H408   1.084       .  S
C403        C404   1.373       .  D
C404        C476   1.518       .  S
C409        C410   1.522       .  S
C409        C415   1.535       .  S
C409        C413   1.536       .  S
C409       C1109   1.552       .  S
C410        H417   1.082       .  S
C410        C411   1.374       .  D
C411        C412   1.554       .  S
C411        C426   1.516       .  S
C412        C416   1.566       .  S
C412        C414   1.551       .  S
C412        H418   1.110       .  S
C413        H419   1.080       .  S
C413        C414   1.361       .  D
C414       C1064   1.488       .  S
C415        H420   1.084       .  S
C415        C416   1.374       .  D
C416        C440   1.493       .  S
C421        C422   1.533       .  S
C421        C427   1.539       .  S
C421        C425   1.519       .  S
C421       C1137   1.544       .  S
C422        H429   1.086       .  S
C422        C423   1.361       .  D
C423        C424   1.550       .  S
C423       C1053   1.510       .  S
C424        C428   1.576       .  S
C424        C426   1.565       .  S
C424        H430   1.110       .  S
C425        H431   1.083       .  S
C425        C426   1.368       .  D
C427        H432   1.082       .  S
C427        C428   1.372       .  D
C433        C434   1.520       .  S
C433        C439   1.523       .  S
C433        C437   1.526       .  S
C433       C1036   1.540       .  S
C434        H441   1.083       .  S
C434        C435   1.376       .  D
C435        C436   1.560       .  S
C435        C524   1.528       .  S
C436        C440   1.577       .  S
C436        C438   1.556       .  S
C436        H442   1.110       .  S
C437        H443   1.087       .  S
C437        C438   1.364       .  D
C438       C1330   1.498       .  S
C439        H444   1.079       .  S
C439        C440   1.369       .  D
C445        C446   1.503       .  S
C445        C451   1.524       .  S
C445        C449   1.525       .  S
C445       C1543   1.544       .  S
C446        H453   1.082       .  S
C446        C447   1.380       .  D
C447        C448   1.585       .  S
C447        C459   1.521       .  S
C448        C452   1.552       .  S
C448        C450   1.573       .  S
C448        H454   1.110       .  S
C449        H455   1.079       .  S
C449        C450   1.375       .  D
C450        C474   1.540       .  S
C451        H456   1.087       .  S
C451        C452   1.361       .  D
C452       C1022   1.483       .  S
C457        C458   1.516       .  S
C457        C463   1.518       .  S
C457        C461   1.536       .  S
C457       C1904   1.543       .  S
C458        H465   1.084       .  S
C458        C459   1.374       .  D
C459        C460   1.562       .  S
C460        C464   1.581       .  S
C460        C462   1.553       .  S
C460        H466   1.109       .  S
C461        H467   1.087       .  S
C461        C462   1.367       .  D
C462       C1011   1.506       .  S
C463        H468   1.070       .  S
C463        C464   1.366       .  D
C464        C495   1.500       .  S
C469        C470   1.511       .  S
C469        C475   1.526       .  S
C469        C473   1.510       .  S
C469       C1596   1.541       .  S
C470        H477   1.087       .  S
C470        C471   1.366       .  D
C471        C472   1.576       .  S
C471        C997   1.491       .  S
C472        C476   1.562       .  S
C472        C474   1.580       .  S
C472        H478   1.110       .  S
C473        H479   1.080       .  S
C473        C474   1.377       .  D
C475        H480   1.084       .  S
C475        C476   1.374       .  D
C481        C482   1.532       .  S
C481        C487   1.526       .  S
C481        C485   1.529       .  S
C481        C983   1.544       .  S
C482        H489   1.087       .  S
C482        C483   1.362       .  D
C483        C484   1.544       .  S
C483       C1725   1.496       .  S
C484        C488   1.577       .  S
C484        C486   1.555       .  S
C484        H490   1.110       .  S
C485        H491   1.081       .  S
C485        C486   1.375       .  D
C486        C498   1.518       .  S
C487        H492   1.082       .  S
C487        C488   1.367       .  D
C493        C494   1.546       .  S
C493        C499   1.522       .  S
C493        C497   1.503       .  S
C493        C966   1.540       .  S
C494        H501   1.082       .  S
C494        C495   1.379       .  D
C495        C496   1.560       .  S
C496        C500   1.570       .  S
C496        C498   1.568       .  S
C496        H502   1.110       .  S
C497        H503   1.084       .  S
C497        C498   1.369       .  D
C499        H504   1.083       .  S
C499        C500   1.354       .  D
C500       C1641   1.504       .  S
C505        C506   1.513       .  S
C505        C511   1.523       .  S
C505        C509   1.512       .  S
C505        C952   1.542       .  S
C506        H513   1.086       .  S
C506        C507   1.373       .  D
C507        C508   1.583       .  S
C507       C1235   1.495       .  S
C508        C512   1.557       .  S
C508        C510   1.580       .  S
C508        H514   1.110       .  S
C509        H515   1.084       .  S
C509        C510   1.369       .  D
C510        C519   1.541       .  S
C511        H516   1.084       .  S
C511        C512   1.375       .  D
C517        C518   1.511       .  S
C517        C523   1.506       .  S
C517        C521   1.530       .  S
C517        C938   1.546       .  S
C518        H525   1.086       .  S
C518        C519   1.380       .  D
C519        C520   1.575       .  S
C520        C524   1.587       .  S
C520        C522   1.554       .  S
C520        H526   1.110       .  S
C521        H527   1.087       .  S
C521        C522   1.365       .  D
C522       C1179   1.485       .  S
C523        H528   1.075       .  S
C523        C524   1.378       .  D
O529        C532   1.261       .  A
O529       Cd534   2.414       .  S
C530        O539   1.266       .  A
C530        O535   1.266       .  A
C530        C896   1.476       .  S
O531        C537   1.270       .  A
O531       Cd534   2.513       .  S
C532        O540   1.270       .  A
C532        C910   1.488       .  S
C533        O538   1.271       .  A
C533        O536   1.260       .  A
C533        C994   1.500       .  S
Cd534       O541   2.438       .  S
Cd534       O540   2.494       .  S
Cd534       O539   2.422       .  S
Cd534       O535   2.438       .  S
Cd534       O538   2.536       .  S
Cd534       O536   2.470       .  S
C537        O541   1.261       .  A
C537        C924   1.489       .  S
O542        C545   1.266       .  A
O542       Cd547   2.423       .  S
C543        O552   1.265       .  A
C543        O548   1.266       .  A
C543        C868   1.473       .  S
O544        C550   1.274       .  A
O544       Cd547   2.508       .  S
C545        O553   1.269       .  A
C545        C882   1.480       .  S
C546        O551   1.272       .  A
C546        O549   1.263       .  A
C546       C1050   1.498       .  S
Cd547       O554   2.405       .  S
Cd547       O553   2.471       .  S
Cd547       O552   2.421       .  S
Cd547       O548   2.443       .  S
Cd547       O551   2.544       .  S
Cd547       O549   2.432       .  S
C550        O554   1.263       .  A
C550        C927   1.489       .  S
O555        C558   1.267       .  A
O555       Cd560   2.508       .  S
C556        O565   1.266   1_455  A
C556        O561   1.269       .  A
C556        C854   1.490       .  S
O557        C563   1.264       .  A
O557       Cd560   2.445   1_655  S
C558        O566   1.262       .  A
C558        C980   1.492       .  S
C559        O564   1.261       .  A
C559        O562   1.267   1_655  A
C559        C840   1.481       .  S
Cd560       O567   2.431       .  S
Cd560       O566   2.465       .  S
Cd560       O565   2.458   1_455  S
Cd560       O561   2.467       .  S
Cd560       O564   2.414   1_455  S
Cd560       O562   2.513       .  S
C563        O567   1.266   1_655  A
C563        C829   1.477       .  S
O568        C571   1.266       .  A
O568       Cd573   2.455       .  S
C569        O578   1.266       .  A
C569        O574   1.263       .  A
C569        C812   1.480       .  S
O570        C576   1.270   1_655  A
O570       Cd573   2.537   1_655  S
C571        O579   1.265       .  A
C571        C798   1.468       .  S
C572        O577   1.270       .  A
C572        O575   1.265       .  A
C572        C857   1.489       .  S
Cd573       O580   2.422       .  S
Cd573       O579   2.424       .  S
Cd573       O578   2.499       .  S
Cd573       O574   2.433       .  S
Cd573       O577   2.496       .  S
Cd573       O575   2.433       .  S
C576        O580   1.260       .  A
C576       C1039   1.490   1_455  S
O581        C584   1.264       .  A
O581       Cd586   2.438       .  S
C582        O591   1.264       .  A
C582        O587   1.264       .  A
C582        C773   1.481       .  S
O583        C589   1.268       .  A
O583       Cd586   2.501   1_545  S
C584        O592   1.267       .  A
C584        C815   1.482       .  S
C585        O590   1.268       .  A
C585        O588   1.263   1_545  A
C585        C784   1.482       .  S
Cd586       O593   2.447   1_565  S
Cd586       O592   2.482       .  S
Cd586       O591   2.449       .  S
Cd586       O587   2.458       .  S
Cd586       O590   2.482   1_565  S
Cd586       O588   2.425       .  S
C589        O593   1.261       .  A
C589       C1095   1.491       .  S
O594        C597   1.269   1_565  A
O594       Cd599   2.465   1_565  S
C595        O604   1.266       .  A
C595        O600   1.264       .  A
C595        C969   1.479       .  S
O596        C602   1.267       .  A
O596       Cd599   2.461       .  S
C597        O605   1.265       .  A
C597        C787   1.479       .  S
C598        O603   1.268       .  A
C598        O601   1.265       .  A
C598        C913   1.485       .  S
Cd599       O606   2.439       .  S
Cd599       O605   2.407       .  S
Cd599       O604   2.433   1_545  S
Cd599       O600   2.467   1_545  S
Cd599       O603   2.434       .  S
Cd599       O601   2.459       .  S
C602        O606   1.264       .  A
C602        C756   1.477       .  S
O607        C610   1.266       .  A
O607       Cd612   2.476       .  S
C608        O617   1.269   1_655  A
C608        O613   1.266       .  A
C608        C728   1.495       .  S
O609        C615   1.272       .  A
O609       Cd612   2.533       .  S
C610        O618   1.263       .  A
C610        C826   1.475   1_455  S
C611        O616   1.264       .  A
C611        O614   1.268       .  A
C611       C1078   1.508       .  S
Cd612       O619   2.433       .  S
Cd612       O618   2.418       .  S
Cd612       O617   2.506       .  S
Cd612       O613   2.445   1_455  S
Cd612       O616   2.544       .  S
Cd612       O614   2.514       .  S
C615        O619   1.261       .  A
C615        C742   1.491       .  S
O620        C623   1.271       .  A
O620       Cd625   2.514       .  S
C621        O630   1.262       .  A
C621        O626   1.266   1_655  A
C621        C941   1.492       .  S
O622        C628   1.267       .  A
O622       Cd625   2.479       .  S
C623        O631   1.263       .  A
C623        C745   1.493       .  S
C624        O629   1.266       .  A
C624        O627   1.268       .  A
C624        C885   1.484       .  S
Cd625       O632   2.410       .  S
Cd625       O631   2.433       .  S
Cd625       O630   2.478   1_455  S
Cd625       O626   2.507       .  S
Cd625       O629   2.444       .  S
Cd625       O627   2.478       .  S
C628        O632   1.263       .  A
C628        C801   1.477       .  S
O633        C636   1.265       .  A
O633       Cd638   2.432       .  S
C634        O643   1.270       .  A
C634        O639   1.260       .  A
C634        C714   1.487       .  S
O635        C641   1.271       .  A
O635       Cd638   2.504       .  S
C636        O644   1.265       .  A
C636        C871   1.470       .  S
C637        O642   1.271       .  A
C637        O640   1.261       .  A
C637       C1067   1.494       .  S
Cd638       O645   2.419       .  S
Cd638       O644   2.414       .  S
Cd638       O643   2.512       .  S
Cd638       O639   2.410       .  S
Cd638       O642   2.539       .  S
Cd638       O640   2.425       .  S
C641        O645   1.262       .  A
C641        C700   1.488       .  S
O646        C649   1.264       .  A
O646       Cd651   2.427       .  S
C647        O656   1.266       .  A
C647        O652   1.268       .  A
C647        C899   1.474       .  S
O648        C654   1.272       .  A
O648       Cd651   2.568       .  S
C649        O657   1.267       .  A
C649        C843   1.484       .  S
C650        O655   1.273       .  A
C650        O653   1.262       .  A
C650        C703   1.488       .  S
Cd651       O658   2.406       .  S
Cd651       O657   2.487       .  S
Cd651       O656   2.416       .  S
Cd651       O652   2.448       .  S
Cd651       O655   2.499       .  S
Cd651       O653   2.421       .  S
C654        O658   1.260       .  A
C654       C1025   1.497       .  S
O659        C662   1.268       .  A
O659       Cd664   2.474       .  S
C660        O669   1.268       .  A
C660        O665   1.266       .  A
C660        C717   1.484       .  S
O661        C667   1.271       .  A
O661       Cd664   2.511   1_545  S
C662        O670   1.264       .  A
C662        C770   1.474       .  S
C663        O668   1.274       .  A
C663        O666   1.265       .  A
C663        C686   1.494       .  S
Cd664       O671   2.433       .  S
Cd664       O670   2.415       .  S
Cd664       O669   2.486       .  S
Cd664       O665   2.425       .  S
Cd664       O668   2.506       .  S
Cd664       O666   2.423       .  S
C667        O671   1.262   1_545  A
C667        C955   1.492       .  S
O672        C675   1.263       .  A
O672       Cd677   2.451   1_545  S
C673        O682   1.264       .  A
C673        O678   1.263       .  A
C673        C759   1.483       .  S
O674        C680   1.269       .  A
O674       Cd677   2.519       .  S
C675        O683   1.270       .  A
C675        C731   1.498       .  S
C676        O681   1.264       .  A
C676        O679   1.269       .  A
C676       C1008   1.500       .  S
Cd677       O684   2.452   1_565  S
Cd677       O683   2.535   1_565  S
Cd677       O682   2.461   1_565  S
Cd677       O678   2.453   1_565  S
Cd677       O681   2.491       .  S
Cd677       O679   2.516       .  S
C680        O684   1.262   1_565  A
C680        C689   1.490       .  S
C685        C686   1.405       .  A
C685        C690   1.410   1_565  A
C685        H692   1.083   1_565  S
C686        C687   1.417       .  A
C687        C688   1.405       .  A
C687        N694   1.433       .  S
C688        C689   1.402       .  A
C688        H693   1.084       .  S
C689        C690   1.416   1_565  A
C690        N691   1.438       .  S
N691        H695   1.046       .  S
N691        H696   1.046       .  S
N694        H697   1.046       .  S
N694        H698   1.046       .  S
C699        C700   1.403       .  A
C699        C704   1.404       .  A
C699        H706   1.084       .  S
C700        C701   1.418       .  A
C701        C702   1.407       .  A
C701        N708   1.438       .  S
C702        C703   1.402       .  A
C702        H707   1.083       .  S
C703        C704   1.416       .  A
C704        N705   1.433       .  S
N705        H709   1.046       .  S
N705        H710   1.046       .  S
N708        H711   1.046       .  S
N708        H712   1.046       .  S
C713        C714   1.407       .  A
C713        C718   1.410       .  A
C713        H720   1.083       .  S
C714        C715   1.420       .  A
C715        C716   1.395       .  A
C715        N722   1.433       .  S
C716        C717   1.402       .  A
C716        H721   1.084       .  S
C717        C718   1.415       .  A
C718        N719   1.438       .  S
N719        H723   1.046       .  S
N719        H724   1.045       .  S
N722        H725   1.044       .  S
N722        H726   1.046       .  S
C727        C728   1.405       .  A
C727        C732   1.402       .  A
C727        H734   1.084       .  S
C728        C729   1.416       .  A
C729        C730   1.415       .  A
C729        N736   1.437       .  S
C730        C731   1.408       .  A
C730        H735   1.083       .  S
C731        C732   1.414       .  A
C732        N733   1.433       .  S
N733        H737   1.046       .  S
N733        H738   1.046       .  S
N736        H739   1.046       .  S
N736        H740   1.046   1_655  S
C741        C742   1.409       .  A
C741        C746   1.403       .  A
C741        H748   1.084       .  S
C742        C743   1.414       .  A
C743        C744   1.402       .  A
C743        N750   1.432       .  S
C744        C745   1.409       .  A
C744        H749   1.084       .  S
C745        C746   1.415       .  A
C746        N747   1.432   1_455  S
N747        H751   1.046       .  S
N747        H752   1.045       .  S
N750        H753   1.045       .  S
N750        H754   1.045       .  S
C755        C756   1.402       .  A
C755        C760   1.404       .  A
C755        H762   1.084       .  S
C756        C757   1.411       .  A
C757        C758   1.404       .  A
C757        N764   1.438       .  S
C758        C759   1.406       .  A
C758        H763   1.083       .  S
C759        C760   1.415       .  A
C760        N761   1.438       .  S
N761        H765   1.046       .  S
N761        H766   1.045       .  S
N764        H767   1.046       .  S
N764        H768   1.046       .  S
C769        C770   1.402       .  A
C769        C774   1.398       .  A
C769        H776   1.084       .  S
C770        C771   1.410       .  A
C771        C772   1.402       .  A
C771        N778   1.439       .  S
C772        C773   1.406       .  A
C772        H777   1.083       .  S
C773        C774   1.418       .  A
C774        N775   1.432       .  S
N775        H779   1.044       .  S
N775        H780   1.046       .  S
N778        H781   1.045       .  S
N778        H782   1.046       .  S
C783        C784   1.407   1_565  A
C783        C788   1.404       .  A
C783        H790   1.083       .  S
C784        C785   1.413       .  A
C785        C786   1.403       .  A
C785        N792   1.438       .  S
C786        C787   1.405       .  A
C786        H791   1.084       .  S
C787        C788   1.410   1_545  A
C788        N789   1.438       .  S
N789        H793   1.046       .  S
N789        H794   1.046       .  S
N792        H795   1.046       .  S
N792        H796   1.046       .  S
C797        C798   1.399       .  A
C797        C802   1.400       .  A
C797        H804   1.084       .  S
C798        C799   1.411       .  A
C799        C800   1.404       .  A
C799        N806   1.439       .  S
C800        C801   1.404       .  A
C800        H805   1.084       .  S
C801        C802   1.413       .  A
C802        N803   1.438       .  S
N803        H807   1.046       .  S
N803        H808   1.046       .  S
N806        H809   1.046       .  S
N806        H810   1.046       .  S
C811        C812   1.403       .  A
C811        C816   1.400       .  A
C811        H818   1.084       .  S
C812        C813   1.413       .  A
C813        C814   1.409       .  A
C813        N820   1.437       .  S
C814        C815   1.406       .  A
C814        H819   1.083       .  S
C815        C816   1.410       .  A
C816        N817   1.433       .  S
N817        H821   1.046       .  S
N817        H822   1.046       .  S
N820        H823   1.045       .  S
N820        H824   1.046       .  S
C825        C826   1.402       .  A
C825        C830   1.405       .  A
C825        H832   1.083       .  S
C826        C827   1.409       .  A
C827        C828   1.397       .  A
C827        N834   1.433   1_655  S
C828        C829   1.402       .  A
C828        H833   1.084       .  S
C829        C830   1.415       .  A
C830        N831   1.437       .  S
N831        H835   1.046       .  S
N831        H836   1.046       .  S
N834        H837   1.046       .  S
N834        H838   1.046   1_455  S
C839        C840   1.405       .  A
C839        C844   1.411       .  A
C839        H846   1.083       .  S
C840        C841   1.409       .  A
C841        C842   1.398       .  A
C841        N848   1.433       .  S
C842        C843   1.404       .  A
C842        H847   1.084       .  S
C843        C844   1.414       .  A
C844        N845   1.437       .  S
N845        H849   1.046       .  S
N845        H850   1.046       .  S
N848        H851   1.046       .  S
N848        H852   1.046       .  S
C853        C854   1.408   1_655  A
C853        C858   1.409       .  A
C853        H860   1.083       .  S
C854        C855   1.413       .  A
C855        C856   1.405       .  A
C855        N862   1.438       .  S
C856        C857   1.406       .  A
C856        H861   1.083       .  S
C857        C858   1.414   1_455  A
C858        N859   1.438       .  S
N859        H863   1.046       .  S
N859        H864   1.046       .  S
N862        H865   1.046       .  S
N862        H866   1.046       .  S
C867        C868   1.404       .  A
C867        C872   1.401       .  A
C867        H874   1.084       .  S
C868        C869   1.409       .  A
C869        C870   1.398       .  A
C869        N876   1.433       .  S
C870        C871   1.403       .  A
C870        H875   1.084       .  S
C871        C872   1.410       .  A
C872        N873   1.438       .  S
N873        H877   1.046       .  S
N873        H878   1.046       .  S
N876        H879   1.046       .  S
N876        H880   1.046       .  S
C881        C882   1.403       .  A
C881        C886   1.401       .  A
C881        H888   1.084       .  S
C882        C883   1.414       .  A
C883        C884   1.408       .  A
C883        N890   1.438       .  S
C884        C885   1.406       .  A
C884        H889   1.083       .  S
C885        C886   1.410       .  A
C886        N887   1.432       .  S
N887        H891   1.046       .  S
N887        H892   1.046       .  S
N890        H893   1.045       .  S
N890        H894   1.046       .  S
C895        C896   1.404       .  A
C895        C900   1.400       .  A
C895        H902   1.083       .  S
C896        C897   1.411       .  A
C897        C898   1.400       .  A
C897        N904   1.433       .  S
C898        C899   1.403       .  A
C898        H903   1.084       .  S
C899        C900   1.411       .  A
C900        N901   1.438       .  S
N901        H905   1.046       .  S
N901        H906   1.046       .  S
N904        H907   1.046       .  S
N904        H908   1.046       .  S
C909        C910   1.406       .  A
C909        C914   1.401       .  A
C909        H916   1.084       .  S
C910        C911   1.421       .  A
C911        C912   1.395       .  A
C911        N918   1.433       .  S
C912        C913   1.402       .  A
C912        H917   1.084       .  S
C913        C914   1.419       .  A
C914        N915   1.433       .  S
N915        H919   1.045       .  S
N915        H920   1.045       .  S
N918        H921   1.045       .  S
N918        H922   1.045       .  S
C923        C924   1.410       .  A
C923        C928   1.407       .  A
C923        H930   1.084       .  S
C924        C925   1.409       .  A
C925        C926   1.404       .  A
C925        N932   1.432       .  S
C926        C927   1.409       .  A
C926        H931   1.084       .  S
C927        C928   1.409       .  A
C928        N929   1.432       .  S
N929        H933   1.046       .  S
N929        H934   1.046       .  S
N932        H935   1.046       .  S
N932        H936   1.046       .  S
C937        C938   1.411       .  A
C937        C942   1.409       .  A
C937        H944   1.079       .  S
C938        C939   1.418       .  A
C939        C940   1.408       .  A
C939        N946   1.433       .  S
C940        C941   1.403       .  A
C940        H945   1.084       .  S
C941        C942   1.416       .  A
C942        N943   1.439       .  S
N943        H947   1.046       .  S
N943        H948   1.046       .  S
N946        H949   1.046       .  S
N946        H950   1.046       .  S
C951        C952   1.418       .  A
C951        C956   1.407       .  A
C951        H958   1.080       .  S
C952        C953   1.411       .  A
C953        C954   1.406       .  A
C953        N960   1.432       .  S
C954        C955   1.409       .  A
C954        H959   1.083   1_545  S
C955        C956   1.410       .  A
C956        N957   1.438       .  S
N957        H961   1.046       .  S
N957        H962   1.045       .  S
N960        H963   1.046       .  S
N960        H964   1.045       .  S
C965        C966   1.416       .  A
C965        C970   1.394       .  A
C965        H972   1.080       .  S
C966        C967   1.423       .  A
C967        C968   1.404       .  A
C967        N974   1.432       .  S
C968        C969   1.405       .  A
C968        H973   1.084       .  S
C969        C970   1.403       .  A
C970        N971   1.433       .  S
N971        H975   1.046       .  S
N971        H976   1.046       .  S
N974        H977   1.045       .  S
N974        H978   1.040       .  S
C979        C980   1.406       .  A
C979        C984   1.407       .  A
C979        H986   1.084       .  S
C980        C981   1.409       .  A
C981        C982   1.408       .  A
C981        N988   1.438       .  S
C982        C983   1.417       .  A
C982        H987   1.077       .  S
C983        C984   1.417       .  A
C984        N985   1.432       .  S
N985        H989   1.046       .  S
N985        H990   1.046       .  S
N988        H991   1.045       .  S
N988        H992   1.046       .  S
C993        C994   1.402       .  A
C993        C998   1.408       .  A
C993       H1000   1.083       .  S
C994        C995   1.421       .  A
C995        C996   1.412       .  A
C995       N1002   1.432       .  S
C996        C997   1.398       .  A
C996       H1001   1.083       .  S
C997        C998   1.417       .  A
C998        N999   1.435       .  S
N999       H1003   1.045       .  S
N999       H1004   1.042       .  S
N1002      H1005   1.046       .  S
N1002      H1006   1.045       .  S
C1007      C1008   1.410       .  A
C1007      C1012   1.414       .  A
C1007      H1014   1.083       .  S
C1008      C1009   1.412       .  A
C1009      C1010   1.409       .  A
C1009      N1016   1.437       .  S
C1010      C1011   1.409       .  A
C1010      H1015   1.084       .  S
C1011      C1012   1.411       .  A
C1012      N1013   1.433       .  S
N1013      H1017   1.046       .  S
N1013      H1018   1.037       .  S
N1016      H1019   1.046       .  S
N1016      H1020   1.046       .  S
C1021      C1022   1.408       .  A
C1021      C1026   1.418       .  A
C1021      H1028   1.084       .  S
C1022      C1023   1.403       .  A
C1023      C1024   1.398       .  A
C1023      N1030   1.433       .  S
C1024      C1025   1.409       .  A
C1024      H1029   1.083       .  S
C1025      C1026   1.417       .  A
C1026      N1027   1.436       .  S
N1027      H1031   1.045       .  S
N1027      H1032   1.045       .  S
N1030      H1033   1.044       .  S
N1030      H1034   1.046       .  S
C1035      C1036   1.412       .  A
C1035      C1040   1.417       .  A
C1035      H1042   1.078       .  S
C1036      C1037   1.420       .  A
C1037      C1038   1.397       .  A
C1037      N1044   1.435       .  S
C1038      C1039   1.402       .  A
C1038      H1043   1.084   1_655  S
C1039      C1040   1.413       .  A
C1040      N1041   1.437       .  S
N1041      H1045   1.045       .  S
N1041      H1046   1.046       .  S
N1044      H1047   1.046       .  S
N1044      H1048   1.046   1_655  S
C1049      C1050   1.405       .  A
C1049      C1054   1.400       .  A
C1049      H1056   1.083       .  S
C1050      C1051   1.417       .  A
C1051      C1052   1.418       .  A
C1051      N1058   1.437       .  S
C1052      C1053   1.407       .  A
C1052      H1057   1.076       .  S
C1053      C1054   1.412       .  A
C1054      N1055   1.433       .  S
N1055      H1059   1.046       .  S
N1055      H1060   1.046       .  S
N1058      H1061   1.045       .  S
N1058      H1062   1.046       .  S
C1063      C1064   1.405       .  A
C1063      C1068   1.414       .  A
C1063      H1070   1.077       .  S
C1064      C1065   1.411       .  A
C1065      C1066   1.397       .  A
C1065      N1072   1.432       .  S
C1066      C1067   1.408       .  A
C1066      H1071   1.084       .  S
C1067      C1068   1.413       .  A
C1068      N1069   1.436       .  S
N1069      H1073   1.045       .  S
N1069      H1074   1.045       .  S
N1072      H1075   1.044       .  S
N1072      H1076   1.044       .  S
C1077      C1078   1.402       .  A
C1077      C1082   1.403       .  A
C1077      H1084   1.084       .  S
C1078      C1079   1.422       .  A
C1079      C1080   1.422       .  A
C1079      N1086   1.437       .  S
C1080      C1081   1.407       .  A
C1080      H1085   1.081       .  S
C1081      C1082   1.420       .  A
C1082      N1083   1.433       .  S
N1083      H1087   1.045       .  S
N1083      H1088   1.046       .  S
N1086      H1089   1.046       .  S
N1086      H1090   1.046       .  S
C1091      C1092   1.411       .  A
C1091      C1096   1.398       .  A
C1091      H1098   1.076       .  S
C1092      C1093   1.426       .  A
C1093      C1094   1.403       .  A
C1093      N1100   1.434       .  S
C1094      C1095   1.404       .  A
C1094      H1099   1.084       .  S
C1095      C1096   1.417       .  A
C1096      N1097   1.433       .  S
N1097      H1101   1.045       .  S
N1097      H1102   1.045       .  S
N1100      H1103   1.039       .  S
N1100      H1104   1.044       .  S
C1105      C1106   1.408       .  A
C1105      C1110   1.412       .  A
C1105      H1112   1.083       .  S
C1106      C1107   1.417       .  A
C1107      C1108   1.401       .  A
C1107      N1114   1.433       .  S
C1108      C1109   1.414       .  A
C1108      H1113   1.074       .  S
C1109      C1110   1.417       .  A
C1110      N1111   1.433       .  S
N1111      H1115   1.045       .  S
N1111      H1116   1.046       .  S
N1114      H1117   1.045       .  S
N1114      H1118   1.045       .  S
C1119      C1120   1.408       .  A
C1119      C1124   1.407       .  A
C1119      H1126   1.084       .  S
C1120      C1121   1.411       .  A
C1121      C1122   1.404       .  A
C1121      N1128   1.432       .  S
C1122      C1123   1.407       .  A
C1122      H1127   1.084       .  S
C1123      C1124   1.410       .  A
C1124      N1125   1.432       .  S
N1125      H1129   1.046       .  S
N1125      H1130   1.046       .  S
N1128      H1131   1.046       .  S
N1128      H1132   1.046       .  S
C1133      C1134   1.395       .  A
C1133      C1138   1.393       .  A
C1133      H1140   1.084       .  S
C1134      C1135   1.418       .  A
C1135      C1136   1.414       .  A
C1135      N1142   1.438       .  S
C1136      C1137   1.411       .  A
C1136      H1141   1.078       .  S
C1137      C1138   1.433       .  A
C1138      N1139   1.434       .  S
N1139      H1143   1.042       .  S
N1139      H1144   1.041       .  S
N1142      H1145   1.046       .  S
N1142      H1146   1.046       .  S
C1147      C1148   1.404       .  A
C1147      C1152   1.401       .  A
C1147      H1154   1.084       .  S
C1148      C1149   1.416       .  A
C1149      C1150   1.410       .  A
C1149      N1156   1.437       .  S
C1150      C1151   1.404       .  A
C1150      H1155   1.083       .  S
C1151      C1152   1.410       .  A
C1152      N1153   1.433       .  S
N1153      H1157   1.046       .  S
N1153      H1158   1.046       .  S
N1156      H1159   1.046       .  S
N1156      H1160   1.046       .  S
C1161      C1162   1.407       .  A
C1161      C1166   1.403       .  A
C1161      H1168   1.083       .  S
C1162      C1163   1.414       .  A
C1163      C1164   1.408       .  A
C1163      N1170   1.438       .  S
C1164      C1165   1.408       .  A
C1164      H1169   1.083       .  S
C1165      C1166   1.408       .  A
C1166      N1167   1.432       .  S
N1167      H1171   1.046       .  S
N1167      H1172   1.046       .  S
N1170      H1173   1.046       .  S
N1170      H1174   1.046       .  S
C1175      C1176   1.409       .  A
C1175      C1180   1.399       .  A
C1175      H1182   1.084       .  S
C1176      C1177   1.412       .  A
C1177      C1178   1.415       .  A
C1177      N1184   1.431       .  S
C1178      C1179   1.407       .  A
C1178      H1183   1.083       .  S
C1179      C1180   1.406       .  A
C1180      N1181   1.434       .  S
N1181      H1185   1.046       .  S
N1181      H1186   1.046       .  S
N1184      H1187   1.045   1_655  S
N1184      H1188   1.046       .  S
C1189      C1190   1.406       .  A
C1189      C1194   1.407       .  A
C1189      H1196   1.083       .  S
C1190      C1191   1.409       .  A
C1191      C1192   1.401       .  A
C1191      N1198   1.433       .  S
C1192      C1193   1.406       .  A
C1192      H1197   1.084       .  S
C1193      C1194   1.414       .  A
C1194      N1195   1.437       .  S
N1195      H1199   1.046       .  S
N1195      H1200   1.045       .  S
N1198      H1201   1.046       .  S
N1198      H1202   1.046       .  S
C1203      C1204   1.401       .  A
C1203      C1208   1.402       .  A
C1203      H1210   1.084       .  S
C1204      C1205   1.416       .  A
C1205      C1206   1.406       .  A
C1205      N1212   1.438       .  S
C1206      C1207   1.404       .  A
C1206      H1211   1.083       .  S
C1207      C1208   1.424       .  A
C1208      N1209   1.432       .  S
N1209      H1213   1.045       .  S
N1209      H1214   1.045       .  S
N1212      H1215   1.045       .  S
N1212      H1216   1.046       .  S
C1217      C1218   1.402       .  A
C1217      C1222   1.393       .  A
C1217      H1224   1.084       .  S
C1218      C1219   1.409       .  A
C1219      C1220   1.401       .  A
C1219      N1226   1.438       .  S
C1220      C1221   1.403       .  A
C1220      H1225   1.084       .  S
C1221      C1222   1.414       .  A
C1222      N1223   1.433       .  S
N1223      H1227   1.045       .  S
N1223      H1228   1.045   1_655  S
N1226      H1229   1.046       .  S
N1226      H1230   1.046       .  S
C1231      C1232   1.414       .  A
C1231      C1236   1.410       .  A
C1231      H1238   1.083       .  S
C1232      C1233   1.418       .  A
C1233      C1234   1.402       .  A
C1233      N1240   1.432       .  S
C1234      C1235   1.408       .  A
C1234      H1239   1.082       .  S
C1235      C1236   1.408       .  A
C1236      N1237   1.431       .  S
N1237      H1241   1.043       .  S
N1237      H1242   1.045       .  S
N1240      H1243   1.044       .  S
N1240      H1244   1.045       .  S
C1245      C1246   1.408       .  A
C1245      C1250   1.405       .  A
C1245      H1252   1.084       .  S
C1246      C1247   1.415       .  A
C1247      C1248   1.408       .  A
C1247      N1254   1.437       .  S
C1248      C1249   1.404       .  A
C1248      H1253   1.083       .  S
C1249      C1250   1.409       .  A
C1250      N1251   1.433       .  S
N1251      H1255   1.046       .  S
N1251      H1256   1.046       .  S
N1254      H1257   1.046       .  S
N1254      H1258   1.046       .  S
C1259      C1260   1.402       .  A
C1259      C1264   1.396       .  A
C1259      H1266   1.084       .  S
C1260      C1261   1.415       .  A
C1261      C1262   1.403       .  A
C1261      N1268   1.438       .  S
C1262      C1263   1.402       .  A
C1262      H1267   1.084       .  S
C1263      C1264   1.408       .  A
C1264      N1265   1.433       .  S
N1265      H1269   1.046       .  S
N1265      H1270   1.046       .  S
N1268      H1271   1.046       .  S
N1268      H1272   1.046       .  S
C1273      C1274   1.409       .  A
C1273      C1278   1.405       .  A
C1273      H1280   1.083       .  S
C1274      C1275   1.413       .  A
C1275      C1276   1.409       .  A
C1275      N1282   1.437   1_565  S
C1276      C1277   1.408       .  A
C1276      H1281   1.084   1_565  S
C1277      C1278   1.410       .  A
C1278      N1279   1.438       .  S
N1279      H1283   1.046       .  S
N1279      H1284   1.046       .  S
N1282      H1285   1.046   1_545  S
N1282      H1286   1.046       .  S
C1287      C1288   1.404       .  A
C1287      C1292   1.401       .  A
C1287      H1294   1.084       .  S
C1288      C1289   1.414       .  A
C1289      C1290   1.409       .  A
C1289      N1296   1.437       .  S
C1290      C1291   1.406       .  A
C1290      H1295   1.083       .  S
C1291      C1292   1.412       .  A
C1292      N1293   1.439       .  S
N1293      H1297   1.046       .  S
N1293      H1298   1.046       .  S
N1296      H1299   1.046       .  S
N1296      H1300   1.046       .  S
C1301      C1302   1.404       .  A
C1301      C1306   1.405       .  A
C1301      H1308   1.084       .  S
C1302      C1303   1.417       .  A
C1303      C1304   1.405       .  A
C1303      N1310   1.438       .  S
C1304      C1305   1.401       .  A
C1304      H1309   1.084       .  S
C1305      C1306   1.412       .  A
C1306      N1307   1.433       .  S
N1307      H1311   1.046       .  S
N1307      H1312   1.046       .  S
N1310      H1313   1.046       .  S
N1310      H1314   1.046       .  S
C1315      C1316   1.403       .  A
C1315      C1320   1.399       .  A
C1315      H1322   1.084       .  S
C1316      C1317   1.414       .  A
C1317      C1318   1.404       .  A
C1317      N1324   1.438       .  S
C1318      C1319   1.405       .  A
C1318      H1323   1.084       .  S
C1319      C1320   1.410       .  A
C1320      N1321   1.432       .  S
N1321      H1325   1.046       .  S
N1321      H1326   1.046       .  S
N1324      H1327   1.046       .  S
N1324      H1328   1.046       .  S
C1329      C1330   1.408       .  A
C1329      C1334   1.402       .  A
C1329      H1336   1.084       .  S
C1330      C1331   1.406       .  A
C1331      C1332   1.410       .  A
C1331      N1338   1.430       .  S
C1332      C1333   1.411       .  A
C1332      H1337   1.084       .  S
C1333      C1334   1.417       .  A
C1334      N1335   1.432   1_655  S
N1335      H1339   1.045       .  S
N1335      H1340   1.045       .  S
N1338      H1341   1.045       .  S
N1338      H1342   1.045       .  S
C1343      C1344   1.408       .  A
C1343      C1348   1.406       .  A
C1343      H1350   1.083       .  S
C1344      C1345   1.414       .  A
C1345      C1346   1.408       .  A
C1345      N1352   1.438       .  S
C1346      C1347   1.409       .  A
C1346      H1351   1.083       .  S
C1347      C1348   1.412       .  A
C1348      N1349   1.438       .  S
N1349      H1353   1.046       .  S
N1349      H1354   1.046       .  S
N1352      H1355   1.045       .  S
N1352      H1356   1.046   1_455  S
C1357      C1358   1.404       .  A
C1357      C1362   1.401       .  A
C1357      H1364   1.084       .  S
C1358      C1359   1.412       .  A
C1359      C1360   1.403       .  A
C1359      N1366   1.438       .  S
C1360      C1361   1.403       .  A
C1360      H1365   1.084       .  S
C1361      C1362   1.409       .  A
C1362      N1363   1.432       .  S
N1363      H1367   1.046       .  S
N1363      H1368   1.046       .  S
N1366      H1369   1.046       .  S
N1366      H1370   1.046       .  S
C1371      C1372   1.406       .  A
C1371      C1376   1.421       .  A
C1371      H1378   1.081       .  S
C1372      C1373   1.420       .  A
C1373      C1374   1.403       .  A
C1373      N1380   1.439       .  S
C1374      C1375   1.407       .  A
C1374      H1379   1.084       .  S
C1375      C1376   1.417       .  A
C1376      N1377   1.436       .  S
N1377      H1381   1.045       .  S
N1377      H1382   1.045       .  S
N1380      H1383   1.041       .  S
N1380      H1384   1.046       .  S
C1385      C1386   1.404       .  A
C1385      C1390   1.405       .  A
C1385      H1392   1.084       .  S
C1386      C1387   1.415       .  A
C1387      C1388   1.407       .  A
C1387      N1394   1.438       .  S
C1388      C1389   1.406       .  A
C1388      H1393   1.083       .  S
C1389      C1390   1.412       .  A
C1390      N1391   1.432       .  S
N1391      H1395   1.045       .  S
N1391      H1396   1.046       .  S
N1394      H1397   1.046       .  S
N1394      H1398   1.046       .  S
C1399      C1400   1.403       .  A
C1399      C1404   1.405       .  A
C1399      H1406   1.084       .  S
C1400      C1401   1.406       .  A
C1401      C1402   1.398       .  A
C1401      N1408   1.433       .  S
C1402      C1403   1.405       .  A
C1402      H1407   1.084       .  S
C1403      C1404   1.414       .  A
C1404      N1405   1.437       .  S
N1405      H1409   1.046       .  S
N1405      H1410   1.046       .  S
N1408      H1411   1.046       .  S
N1408      H1412   1.046       .  S
C1413      C1414   1.404   1_545  A
C1413      C1418   1.398       .  A
C1413      H1420   1.084       .  S
C1414      C1415   1.415       .  A
C1415      C1416   1.401       .  A
C1415      N1422   1.432       .  S
C1416      C1417   1.407       .  A
C1416      H1421   1.084       .  S
C1417      C1418   1.419   1_565  A
C1418      N1419   1.433       .  S
N1419      H1423   1.046       .  S
N1419      H1424   1.044       .  S
N1422      H1425   1.045       .  S
N1422      H1426   1.045       .  S
C1427      C1428   1.408       .  A
C1427      C1432   1.406       .  A
C1427      H1434   1.084       .  S
C1428      C1429   1.410   1_565  A
C1429      C1430   1.406       .  A
C1429      N1436   1.432       .  S
C1430      C1431   1.408   1_545  A
C1430      H1435   1.083       .  S
C1431      C1432   1.420       .  A
C1432      N1433   1.432       .  S
N1433      H1437   1.045       .  S
N1433      H1438   1.045       .  S
N1436      H1439   1.046       .  S
N1436      H1440   1.046       .  S
C1441      C1442   1.410       .  A
C1441      C1446   1.394       .  A
C1441      H1448   1.084       .  S
C1442      C1443   1.423       .  A
C1443      C1444   1.414       .  A
C1443      N1450   1.426       .  S
C1444      C1445   1.403       .  A
C1444      H1449   1.084       .  S
C1445      C1446   1.408       .  A
C1446      N1447   1.434       .  S
N1447      H1451   1.046       .  S
N1447      H1452   1.046       .  S
N1450      H1453   1.045       .  S
N1450      H1454   1.045       .  S
C1455      C1456   1.407       .  A
C1455      C1460   1.404       .  A
C1455      H1462   1.084       .  S
C1456      C1457   1.415   1_545  A
C1457      C1458   1.404       .  A
C1457      N1464   1.432       .  S
C1458      C1459   1.416   1_565  A
C1458      H1463   1.075       .  S
C1459      C1460   1.417       .  A
C1460      N1461   1.433       .  S
N1461      H1465   1.046       .  S
N1461      H1466   1.045       .  S
N1464      H1467   1.045       .  S
N1464      H1468   1.045       .  S
C1469      C1470   1.396   1_545  A
C1469      C1474   1.409       .  A
C1469      H1476   1.078       .  S
C1470      C1471   1.424       .  A
C1471      C1472   1.402       .  A
C1471      N1478   1.436       .  S
C1472      C1473   1.402       .  A
C1472      H1477   1.084       .  S
C1473      C1474   1.417   1_565  A
C1474      N1475   1.432       .  S
N1475      H1479   1.045       .  S
N1475      H1480   1.046       .  S
N1478      H1481   1.044       .  S
N1478      H1482   1.041       .  S
C1483      C1484   1.408       .  A
C1483      C1488   1.412       .  A
C1483      H1490   1.084       .  S
C1484      C1485   1.407       .  A
C1485      C1486   1.402       .  A
C1485      N1492   1.433       .  S
C1486      C1487   1.412       .  A
C1486      H1491   1.083       .  S
C1487      C1488   1.412       .  A
C1488      N1489   1.429       .  S
N1489      H1493   1.045       .  S
N1489      H1494   1.046       .  S
N1492      H1495   1.045       .  S
N1492      H1496   1.046       .  S
C1497      C1498   1.409       .  A
C1497      C1502   1.409       .  A
C1497      H1504   1.083       .  S
C1498      C1499   1.404       .  A
C1499      C1500   1.411       .  A
C1499      N1506   1.427       .  S
C1500      C1501   1.410       .  A
C1500      H1505   1.084       .  S
C1501      C1502   1.410       .  A
C1502      N1503   1.432       .  S
N1503      H1507   1.046       .  S
N1503      H1508   1.044       .  S
N1506      H1509   1.045       .  S
N1506      H1510   1.045       .  S
C1511      C1512   1.419       .  A
C1511      C1516   1.410       .  A
C1511      H1518   1.075       .  S
C1512      C1513   1.429       .  A
C1513      C1514   1.399       .  A
C1513      N1520   1.433       .  S
C1514      C1515   1.402       .  A
C1514      H1519   1.084       .  S
C1515      C1516   1.409       .  A
C1516      N1517   1.438       .  S
N1517      H1521   1.046       .  S
N1517      H1522   1.045       .  S
N1520      H1523   1.041       .  S
N1520      H1524   1.042   1_455  S
C1525      C1526   1.408       .  A
C1525      C1530   1.398       .  A
C1525      H1532   1.084       .  S
C1526      C1527   1.420       .  A
C1527      C1528   1.414       .  A
C1527      N1534   1.431       .  S
C1528      C1529   1.405       .  A
C1528      H1533   1.077       .  S
C1529      C1530   1.418       .  A
C1530      N1531   1.440       .  S
N1531      H1535   1.046       .  S
N1531      H1536   1.042       .  S
N1534      H1537   1.045       .  S
N1534      H1538   1.045       .  S
C1539      C1540   1.406       .  A
C1539      C1544   1.402       .  A
C1539      H1546   1.084       .  S
C1540      C1541   1.411       .  A
C1541      C1542   1.408       .  A
C1541      N1548   1.438       .  S
C1542      C1543   1.416       .  A
C1542      H1547   1.075       .  S
C1543      C1544   1.416       .  A
C1544      N1545   1.434       .  S
N1545      H1549   1.046       .  S
N1545      H1550   1.045       .  S
N1548      H1551   1.046       .  S
N1548      H1552   1.046       .  S
C1553      C1554   1.409       .  A
C1553      C1558   1.408       .  A
C1553      H1560   1.083       .  S
C1554      C1555   1.413       .  A
C1555      C1556   1.407       .  A
C1555      N1562   1.438       .  S
C1556      C1557   1.409       .  A
C1556      H1561   1.083       .  S
C1557      C1558   1.412       .  A
C1558      N1559   1.437       .  S
N1559      H1563   1.046       .  S
N1559      H1564   1.045       .  S
N1562      H1565   1.046       .  S
N1562      H1566   1.046       .  S
C1567      C1568   1.408       .  A
C1567      C1572   1.409       .  A
C1567      H1574   1.084       .  S
C1568      C1569   1.408       .  A
C1569      C1570   1.402       .  A
C1569      N1576   1.433       .  S
C1570      C1571   1.414       .  A
C1570      H1575   1.081       .  S
C1571      C1572   1.424       .  A
C1572      N1573   1.436       .  S
N1573      H1577   1.045       .  S
N1573      H1578   1.043       .  S
N1576      H1579   1.046       .  S
N1576      H1580   1.046       .  S
C1581      C1582   1.406       .  A
C1581      C1586   1.411       .  A
C1581      H1588   1.083       .  S
C1582      C1583   1.411       .  A
C1583      C1584   1.403       .  A
C1583      N1590   1.433       .  S
C1584      C1585   1.405       .  A
C1584      H1589   1.084       .  S
C1585      C1586   1.414       .  A
C1586      N1587   1.437       .  S
N1587      H1591   1.046       .  S
N1587      H1592   1.045       .  S
N1590      H1593   1.046       .  S
N1590      H1594   1.046       .  S
C1595      C1596   1.415       .  A
C1595      C1600   1.404       .  A
C1595      H1602   1.079       .  S
C1596      C1597   1.415       .  A
C1597      C1598   1.405       .  A
C1597      N1604   1.433       .  S
C1598      C1599   1.406       .  A
C1598      H1603   1.084       .  S
C1599      C1600   1.409       .  A
C1600      N1601   1.433       .  S
N1601      H1605   1.046       .  S
N1601      H1606   1.046       .  S
N1604      H1607   1.046       .  S
N1604      H1608   1.046       .  S
C1609      C1610   1.401       .  A
C1609      C1614   1.405       .  A
C1609      H1616   1.084       .  S
C1610      C1611   1.413       .  A
C1611      C1612   1.405       .  A
C1611      N1618   1.433       .  S
C1612      C1613   1.404       .  A
C1612      H1617   1.084       .  S
C1613      C1614   1.416       .  A
C1614      N1615   1.432       .  S
N1615      H1619   1.046       .  S
N1615      H1620   1.046       .  S
N1618      H1621   1.046       .  S
N1618      H1622   1.045       .  S
C1623      C1624   1.408       .  A
C1623      C1628   1.403       .  A
C1623      H1630   1.083       .  S
C1624      C1625   1.418   1_565  A
C1625      C1626   1.417   1_545  A
C1625      N1632   1.437       .  S
C1626      C1627   1.405       .  A
C1626      H1631   1.077   1_565  S
C1627      C1628   1.412       .  A
C1628      N1629   1.439       .  S
N1629      H1633   1.046       .  S
N1629      H1634   1.046       .  S
N1632      H1635   1.045       .  S
N1632      H1636   1.046       .  S
C1637      C1638   1.397       .  A
C1637      C1642   1.399       .  A
C1637      H1644   1.084       .  S
C1638      C1639   1.422       .  A
C1639      C1640   1.418       .  A
C1639      N1646   1.437       .  S
C1640      C1641   1.402       .  A
C1640      H1645   1.084       .  S
C1641      C1642   1.426       .  A
C1642      N1643   1.437       .  S
N1643      H1647   1.044       .  S
N1643      H1648   1.046       .  S
N1646      H1649   1.045       .  S
N1646      H1650   1.046       .  S
C1651      C1652   1.402       .  A
C1651      C1656   1.399       .  A
C1651      H1658   1.084       .  S
C1652      C1653   1.418       .  A
C1653      C1654   1.412       .  A
C1653      N1660   1.437       .  S
C1654      C1655   1.406       .  A
C1654      H1659   1.083       .  S
C1655      C1656   1.415       .  A
C1656      N1657   1.433       .  S
N1657      H1661   1.045       .  S
N1657      H1662   1.046       .  S
N1660      H1663   1.046       .  S
N1660      H1664   1.046       .  S
C1665      C1666   1.409   1_565  A
C1665      C1670   1.408       .  A
C1665      H1672   1.083       .  S
C1666      C1667   1.413       .  A
C1667      C1668   1.409       .  A
C1667      N1674   1.438       .  S
C1668      C1669   1.409       .  A
C1668      H1673   1.083       .  S
C1669      C1670   1.412   1_545  A
C1670      N1671   1.438       .  S
N1671      H1675   1.046       .  S
N1671      H1676   1.046       .  S
N1674      H1677   1.046       .  S
N1674      H1678   1.046       .  S
C1679      C1680   1.405       .  A
C1679      C1684   1.398       .  A
C1679      H1686   1.084       .  S
C1680      C1681   1.413       .  A
C1681      C1682   1.402       .  A
C1681      N1688   1.438       .  S
C1682      C1683   1.403       .  A
C1682      H1687   1.084       .  S
C1683      C1684   1.408       .  A
C1684      N1685   1.433       .  S
N1685      H1689   1.045       .  S
N1685      H1690   1.046       .  S
N1688      H1691   1.045       .  S
N1688      H1692   1.046       .  S
C1693      C1694   1.402       .  A
C1693      C1698   1.402       .  A
C1693      H1700   1.083   1_455  S
C1694      C1695   1.426       .  A
C1695      C1696   1.406       .  A
C1695      N1702   1.432       .  S
C1696      C1697   1.398       .  A
C1696      H1701   1.084       .  S
C1697      C1698   1.416       .  A
C1698      N1699   1.440   1_455  S
N1699      H1703   1.046       .  S
N1699      H1704   1.043       .  S
N1702      H1705   1.045       .  S
N1702      H1706   1.044       .  S
C1707      C1708   1.403       .  A
C1707      C1712   1.399       .  A
C1707      H1714   1.084       .  S
C1708      C1709   1.412       .  A
C1709      C1710   1.398       .  A
C1709      N1716   1.438       .  S
C1710      C1711   1.402       .  A
C1710      H1715   1.084       .  S
C1711      C1712   1.410       .  A
C1712      N1713   1.433       .  S
N1713      H1717   1.045       .  S
N1713      H1718   1.046       .  S
N1716      H1719   1.045       .  S
N1716      H1720   1.046       .  S
C1721      C1722   1.405       .  A
C1721      C1726   1.400       .  A
C1721      H1728   1.084       .  S
C1722      C1723   1.414       .  A
C1723      C1724   1.415       .  A
C1723      N1730   1.436       .  S
C1724      C1725   1.405       .  A
C1724      H1729   1.078       .  S
C1725      C1726   1.410       .  A
C1726      N1727   1.433       .  S
N1727      H1731   1.046       .  S
N1727      H1732   1.046       .  S
N1730      H1733   1.046       .  S
N1730      H1734   1.046       .  S
C1735      C1736   1.404       .  A
C1735      C1740   1.408       .  A
C1735      H1742   1.083       .  S
C1736      C1737   1.423       .  A
C1737      C1738   1.399       .  A
C1737      N1744   1.433   1_455  S
C1738      C1739   1.401       .  A
C1738      H1743   1.084   1_455  S
C1739      C1740   1.417       .  A
C1740      N1741   1.438       .  S
N1741      H1745   1.046       .  S
N1741      H1746   1.046       .  S
N1744      H1747   1.046       .  S
N1744      H1748   1.044   1_655  S
C1749      C1750   1.403       .  A
C1749      C1754   1.403       .  A
C1749      H1756   1.084       .  S
C1750      C1751   1.411       .  A
C1751      C1752   1.403       .  A
C1751      N1758   1.438       .  S
C1752      C1753   1.405       .  A
C1752      H1757   1.084       .  S
C1753      C1754   1.411       .  A
C1754      N1755   1.432       .  S
N1755      H1759   1.045       .  S
N1755      H1760   1.046       .  S
N1758      H1761   1.045       .  S
N1758      H1762   1.046       .  S
C1763      C1764   1.405       .  A
C1763      C1768   1.403       .  A
C1763      H1770   1.084       .  S
C1764      C1765   1.415       .  A
C1765      C1766   1.392       .  A
C1765      N1772   1.433       .  S
C1766      C1767   1.403       .  A
C1766      H1771   1.084       .  S
C1767      C1768   1.418       .  A
C1768      N1769   1.432       .  S
N1769      H1773   1.045       .  S
N1769      H1774   1.045       .  S
N1772      H1775   1.046       .  S
N1772      H1776   1.044       .  S
C1777      C1778   1.400       .  A
C1777      C1782   1.402       .  A
C1777      H1784   1.084       .  S
C1778      C1779   1.409       .  A
C1779      C1780   1.404       .  A
C1779      N1786   1.433       .  S
C1780      C1781   1.412       .  A
C1780      H1785   1.076   1_556  S
C1781      C1782   1.419       .  A
C1782      N1783   1.433       .  S
N1783      H1787   1.046       .  S
N1783      H1788   1.046       .  S
N1786      H1789   1.046   1_556  S
N1786      H1790   1.046   1_556  S
C1791      C1792   1.405       .  A
C1791      C1796   1.404       .  A
C1791      H1798   1.084   1_455  S
C1792      C1793   1.411       .  A
C1793      C1794   1.405       .  A
C1793      N1800   1.438       .  S
C1794      C1795   1.408       .  A
C1794      H1799   1.083       .  S
C1795      C1796   1.411       .  A
C1796      N1797   1.432   1_455  S
N1797      H1801   1.046       .  S
N1797      H1802   1.046       .  S
N1800      H1803   1.046       .  S
N1800      H1804   1.046       .  S
C1805      C1806   1.406       .  A
C1805      C1810   1.402       .  A
C1805      H1812   1.084       .  S
C1806      C1807   1.415       .  A
C1807      C1808   1.399       .  A
C1807      N1814   1.432       .  S
C1808      C1809   1.405       .  A
C1808      H1813   1.084       .  S
C1809      C1810   1.410       .  A
C1810      N1811   1.438       .  S
N1811      H1815   1.045       .  S
N1811      H1816   1.046       .  S
N1814      H1817   1.045       .  S
N1814      H1818   1.045       .  S
C1819      C1820   1.400       .  A
C1819      C1824   1.393       .  A
C1819      H1826   1.084       .  S
C1820      C1821   1.412       .  A
C1821      C1822   1.419       .  A
C1821      N1828   1.437       .  S
C1822      C1823   1.416       .  A
C1822      H1827   1.078       .  S
C1823      C1824   1.417       .  A
C1824      N1825   1.434       .  S
N1825      H1829   1.045       .  S
N1825      H1830   1.046       .  S
N1828      H1831   1.045       .  S
N1828      H1832   1.045       .  S
C1833      C1834   1.401       .  A
C1833      C1838   1.401       .  A
C1833      H1840   1.084       .  S
C1834      C1835   1.417       .  A
C1835      C1836   1.408       .  A
C1835      N1842   1.438       .  S
C1836      C1837   1.404       .  A
C1836      H1841   1.084       .  S
C1837      C1838   1.420       .  A
C1838      N1839   1.433       .  S
N1839      H1843   1.044       .  S
N1839      H1844   1.046       .  S
N1842      H1845   1.046   1_455  S
N1842      H1846   1.046       .  S
C1847      C1848   1.405       .  A
C1847      C1852   1.400       .  A
C1847      H1854   1.083       .  S
C1848      C1849   1.409       .  A
C1849      C1850   1.399       .  A
C1849      N1856   1.432       .  S
C1850      C1851   1.403       .  A
C1850      H1855   1.084       .  S
C1851      C1852   1.411       .  A
C1852      N1853   1.438       .  S
N1853      H1857   1.046       .  S
N1853      H1858   1.046       .  S
N1856      H1859   1.046       .  S
N1856      H1860   1.046       .  S
C1861      C1862   1.404       .  A
C1861      C1866   1.401       .  A
C1861      H1868   1.084       .  S
C1862      C1863   1.418   1_565  A
C1863      C1864   1.408       .  A
C1863      N1870   1.438       .  S
C1864      C1865   1.403   1_545  A
C1864      H1869   1.084       .  S
C1865      C1866   1.410       .  A
C1866      N1867   1.433       .  S
N1867      H1871   1.046       .  S
N1867      H1872   1.046       .  S
N1870      H1873   1.045       .  S
N1870      H1874   1.046       .  S
C1875      C1876   1.407       .  A
C1875      C1880   1.415       .  A
C1875      H1882   1.079       .  S
C1876      C1877   1.424   1_565  A
C1877      C1878   1.399       .  A
C1877      N1884   1.434       .  S
C1878      C1879   1.397   1_545  A
C1878      H1883   1.084       .  S
C1879      C1880   1.422       .  A
C1880      N1881   1.438       .  S
N1881      H1885   1.046       .  S
N1881      H1886   1.045       .  S
N1884      H1887   1.046       .  S
N1884      H1888   1.046       .  S
C1889      C1890   1.405       .  A
C1889      C1894   1.402       .  A
C1889      H1896   1.084       .  S
C1890      C1891   1.414       .  A
C1891      C1892   1.405       .  A
C1891      N1898   1.438       .  S
C1892      C1893   1.403       .  A
C1892      H1897   1.084       .  S
C1893      C1894   1.410       .  A
C1894      N1895   1.438       .  S
N1895      H1899   1.046       .  S
N1895      H1900   1.046       .  S
N1898      H1901   1.046       .  S
N1898      H1902   1.046       .  S
C1903      C1904   1.413       .  A
C1903      C1908   1.418       .  A
C1903      H1910   1.075       .  S
C1904      C1905   1.418       .  A
C1905      C1906   1.397       .  A
C1905      N1912   1.434       .  S
C1906      C1907   1.402       .  A
C1906      H1911   1.084       .  S
C1907      C1908   1.413       .  A
C1908      N1909   1.437       .  S
N1909      H1913   1.046       .  S
N1909      H1914   1.045       .  S
N1912      H1915   1.046       .  S
N1912      H1916   1.046       .  S
C1917      C1918   1.402       .  A
C1917      C1922   1.399       .  A
C1917      H1924   1.084       .  S
C1918      C1919   1.412       .  A
C1919      C1920   1.412       .  A
C1919      N1926   1.438       .  S
C1920      C1921   1.408       .  A
C1920      H1925   1.083       .  S
C1921      C1922   1.409       .  A
C1922      N1923   1.432       .  S
N1923      H1927   1.046       .  S
N1923      H1928   1.046       .  S
N1926      H1929   1.046       .  S
N1926      H1930   1.046       .  S
C1931      C1932   1.408       .  A
C1931      C1936   1.396       .  A
C1931      H1938   1.084       .  S
C1932      C1933   1.411       .  A
C1933      C1934   1.406       .  A
C1933      N1940   1.437   1_545  S
C1934      C1935   1.409       .  A
C1934      H1939   1.084   1_545  S
C1935      C1936   1.413       .  A
C1936      N1937   1.432       .  S
N1937      H1941   1.045       .  S
N1937      H1942   1.045       .  S
N1940      H1943   1.045   1_565  S
N1940      H1944   1.046       .  S
