geometry optimzed in LAMMPS
_audit_creation_date              2020-11-30 
_audit_creation_method            'lammps2cif' 
_symmetry_space_group_name_H-M    'P1' 
_symmetry_Int_Tables_number       1 
_symmetry_cell_setting            triclinic 
loop_ 
_symmetry_equiv_pos_as_xyz 
  x,y,z 
_cell_length_a                    23.195960619194004 
_cell_length_b                    23.707034937318358 
_cell_length_c                    23.56274984002315 
_cell_angle_alpha                 89.30740387208635 
_cell_angle_beta                  89.93307764385563 
_cell_angle_gamma                 90.28288904795753 
loop_ 
_atom_site_label 
_atom_site_type_symbol 
_atom_site_fract_x 
_atom_site_fract_y 
_atom_site_fract_z 
_atom_site_charge 
C1          C  0.31184747  0.30314922  0.17237044    -0.02260
C2          C  0.29100185  0.14066114  0.35615416    -0.02260
C3          C  0.12428388  0.17523590  0.19763739    -0.02260
C4          C  0.17972045  0.33802825  0.36581389    -0.02260
C5          C  0.31534775  0.15147059  0.67830208    -0.02260
C6          C  0.18226930  0.15413701  0.86771815    -0.02260
C7          C  0.14392161  0.31119184  0.68952367    -0.02260
C8          C  0.31943585  0.33428785  0.83536243    -0.02260
C9          C  0.36013485  0.37013004  0.87203262     0.42680
N10         N  0.38385389  0.42401282  0.94314288     0.01570
C11         C  0.62663348  0.59863227  0.94655889    -0.06310
H12         H  0.66716180  0.38455492  0.97680026     0.07060
C13         C  0.54617531  0.39294265  0.17268861    -0.06660
Co14       Co  0.48662537  0.49514325  0.91458064     0.74180
N15         N  0.59034443  0.43245406  0.96004892    -0.25830
Co16       Co  0.58519839  0.49373928  0.02700139     0.74070
C17         C  0.60395957  0.37056519  0.16560350     0.42780
N18         N  0.40934874  0.41717406  0.12028242     0.01190
N19         N  0.58308392  0.43041122  0.09589823     0.01290
N20         N  0.56358192  0.59111762  0.87511924    -0.46680
H21         H  0.43779369  0.40152673  0.81959278     0.07050
N22         N  0.55484688  0.43395594  0.91586016     0.01580
N23         N  0.57694370  0.55541390  0.09101506     0.01320
C24         C  0.60579891  0.61950873  0.15153095     0.42920
N25         N  0.37830062  0.41173412  0.07366654    -0.25290
C26         C  0.40708513  0.60506491  0.89151727    -0.06210
N27         N  0.34474464  0.38780553  0.92476573    -0.46400
N28         N  0.61728740  0.59353566  0.10201543    -0.46620
C29         C  0.34767860  0.62328429  0.90590538     0.42700
N30         N  0.54973943  0.55703909  0.91839421     0.01570
N31         N  0.36294969  0.53801221  0.08137311    -0.25310
N32         N  0.42472437  0.43228432  0.90500529    -0.25810
N33         N  0.40130955  0.54420110  0.12227176     0.01200
H34         H  0.27840720  0.57239962  0.07012366     0.07090
H35         H  0.52993480  0.59534937  0.21168096     0.07130
N36         N  0.58732681  0.55813309  0.96039733    -0.25850
N37         N  0.53806433  0.42987477  0.13027761    -0.25470
N38         N  0.37255137  0.54673386  0.95305060     0.01570
C39         C  0.61737829  0.36861109  0.89335035     0.42970
C40         C  0.34744647  0.36321232  0.07813631    -0.06720
N41         N  0.53641473  0.55272058  0.13071974    -0.25470
H42         H  0.51493761  0.38547329  0.20536961     0.07110
N43         N  0.57027323  0.39794541  0.87503013    -0.46690
H44         H  0.31476586  0.35107153  0.04817812     0.07100
C45         C  0.33328693  0.60394413  0.14461625     0.42800
C46         C  0.41356843  0.40049154  0.85882839    -0.06220
Co47       Co  0.37380154  0.47931808  0.01294390     0.73820
N48         N  0.39671523  0.37658504  0.15861641    -0.46410
C49         C  0.61190190  0.61999939  0.88862168     0.43070
N50         N  0.33041187  0.58407097  0.94497252    -0.46400
Co51       Co  0.47089958  0.48668273  0.12633927     0.73890
C52         C  0.55177719  0.59061216  0.17146797    -0.06720
C53         C  0.63057396  0.39297699  0.94968045    -0.06290
N54         N  0.41736506  0.55599524  0.91939912    -0.25810
N55         N  0.62386308  0.39526783  0.11580995    -0.46580
H56         H  0.66420714  0.60829410  0.97122904     0.07070
C57         C  0.31830527  0.57233227  0.09301863    -0.06700
Cl58       Cl  0.47937991  0.48879649  0.02026175    -0.49700
C59         C  0.35671784  0.34005215  0.13640533     0.42830
H60         H  0.43752600  0.62546286  0.86384872     0.07040
N61         N  0.38486981  0.58174556  0.16110150    -0.46410
C62         C  0.29310577  0.64376360  0.17948941    -0.02260
C63         C  0.14878716  0.82549073  0.18448683    -0.02260
C64         C  0.16667939  0.66041746  0.36800094    -0.02260
C65         C  0.32178010  0.82659894  0.33939875    -0.02260
C66         C  0.35474110  0.11542043  0.64091880     0.42680
N67         N  0.37645455  0.04532150  0.58579638     0.01570
C68         C  0.61939564  0.87828493  0.58615554    -0.06310
H69         H  0.66222500  0.10039568  0.57588314     0.07060
C70         C  0.55003479  0.09331078  0.37406404    -0.06660
Co71       Co  0.48342780  0.98364742  0.62490297     0.74180
N72         N  0.58731748  0.04933333  0.58674910    -0.25830
Co73       Co  0.58672348  0.98985427  0.51633961     0.74070
C74         C  0.60905331  0.11328060  0.38388006     0.42780
N75         N  0.40720441  0.04830008  0.41358913     0.01190
N76         N  0.58227515  0.05467106  0.45166808     0.01290
N77         N  0.55487742  0.88124938  0.65689929    -0.46680
H78         H  0.43311018  0.09660620  0.69780115     0.07050
N79         N  0.55026729  0.04496598  0.62922821     0.01580
N80         N  0.58813757  0.93033382  0.44804100     0.01320
C81         C  0.61892042  0.87357173  0.38082175     0.42920
N82         N  0.37127686  0.04432588  0.45679911    -0.25290
C83         C  0.40707288  0.88227377  0.66732603    -0.06210
N84         N  0.33751396  0.08540595  0.59501269    -0.46400
N85         N  0.63103319  0.89567039  0.43299529    -0.46620
C86         C  0.34797191  0.86140280  0.65735890     0.42700
N87         N  0.54677730  0.92268528  0.61973451     0.01570
N88         N  0.38093004  0.91991277  0.45434075    -0.25310
N89         N  0.41801441  0.04556804  0.62429340    -0.25810
N90         N  0.41674412  0.92741566  0.41100936     0.01200
H91         H  0.31655733  0.85666632  0.46944291     0.07090
H92         H  0.54651237  0.90673280  0.32267198     0.07130
N93         N  0.58519011  0.92340750  0.57832803    -0.25850
N94         N  0.53910135  0.05539249  0.41515887    -0.25470
N95         N  0.37541093  0.92119073  0.58990831     0.01570
C96         C  0.61433424  0.10590916  0.66172723     0.42970
C97         C  0.32771832  0.07977028  0.44750954    -0.06720
N98         N  0.54838141  0.93440950  0.40811564    -0.25470
H99         H  0.52079523  0.10225149  0.33979219     0.07110
N100        N  0.56568657  0.07564468  0.67450698    -0.46690
H101        H  0.29500143  0.08597189  0.47847727     0.07100
C102        C  0.36176377  0.85922769  0.38158240     0.42800
C103        C  0.40785208  0.08775817  0.66052620    -0.06220
Co104      Co  0.37542369  0.98205283  0.52180978     0.73820
N105        N  0.38735464  0.08281773  0.37254765    -0.46410
C106        C  0.60033156  0.85049828  0.63955760     0.43070
N107        N  0.33204224  0.88826615  0.60818348    -0.46400
Co108      Co  0.47786157  0.99188078  0.41211883     0.73890
C109        C  0.56581403  0.90334331  0.36382938    -0.06720
C110        C  0.62712139  0.08802581  0.60239850    -0.06290
N111        N  0.41851921  0.92082812  0.62616374    -0.25810
N112        N  0.62406925  0.08937173  0.43448858    -0.46580
H113        H  0.65425323  0.86707253  0.55827670     0.07070
C114        C  0.34813405  0.87491414  0.44132713    -0.06700
Cl115      Cl  0.48089220  0.98703248  0.51879107    -0.49700
C116        C  0.33598026  0.10449957  0.39041982     0.42830
H117        H  0.43580088  0.87282836  0.70194119     0.07040
N118        N  0.40570829  0.89409645  0.36710889    -0.46410
C119        C  0.65983838  0.33148341  0.85777126    -0.02260
C120        C  0.79433636  0.33313793  0.67038917    -0.02260
C121        C  0.65549541  0.13992980  0.70393386    -0.02260
C122        C  0.82262339  0.17036012  0.84955163    -0.02260
C123        C  0.30581992  0.66179361  0.87012435    -0.02260
C124        C  0.30869172  0.82363221  0.69747481    -0.02260
C125        C  0.15660178  0.64864837  0.69126600    -0.02260
C126        C  0.14203919  0.82045149  0.85440003    -0.02260
C127        C  0.66099627  0.83806849  0.34254330    -0.02260
C128        C  0.81764949  0.65602382  0.34420073    -0.02260
C129        C  0.65428322  0.65387578  0.18222402    -0.02260
C130        C  0.80917250  0.82514245  0.17418948    -0.02260
C131        C  0.64667924  0.65726790  0.84519692    -0.02260
C132        C  0.81660826  0.66239804  0.67944351    -0.02260
C133        C  0.63808345  0.82179313  0.68398082    -0.02260
C134        C  0.81133714  0.83193148  0.83751859    -0.02260
C135        C  0.10510383  0.86234152  0.14561458     0.42680
N136        N  0.03682385  0.92341905  0.11996461     0.01570
C137        C  0.88186436  0.92607851  0.85700871    -0.06310
H138        H  0.07747068  0.93137449  0.82229834     0.07060
C139        C  0.10595184  0.12912085  0.95513725    -0.06660
Co140      Co  0.97709196  0.89289736  0.00823872     0.74180
N141        N  0.04218594  0.93012005  0.90601775    -0.25830
Co142      Co  0.98862743  0.00111275  0.90532318     0.74070
C143        C  0.13829116  0.11486103  0.90305763     0.42780
N144        N  0.04143130  0.09798661  0.08783349     0.01190
N145        N  0.05945510  0.06125518  0.91497082     0.01290
N146        N  0.87331357  0.86146717  0.92641221    -0.46680
H147        H  0.10079912  0.82479853  0.05541251     0.07050
N148        N  0.04039478  0.89083994  0.94613948     0.01580
N149        N  0.93277736  0.07154404  0.90390033     0.01320
C150        C  0.86836699  0.13528282  0.88265762     0.42920
N151        N  0.03874802  0.05662740  0.12558520    -0.25290
C152        C  0.87572150  0.84790208  0.08187882    -0.06210
N153        N  0.07297162  0.90777774  0.16162585    -0.46400
N154        N  0.89820201  0.09013673  0.86247671    -0.46620
C155        C  0.84651944  0.86281997  0.13462168     0.42700
N156        N  0.91368150  0.89965312  0.93979511     0.01570
N157        N  0.91453678  0.06136538  0.11778002    -0.25310
N158        N  0.04067358  0.88981792  0.07576604    -0.25810
N159        N  0.91836242  0.10244731  0.07918595     0.01200
H160        H  0.87095239  0.05638393  0.19826374     0.07090
H161        H  0.86907488  0.16349013  0.97594828     0.07130
N162        N  0.91923993  0.93926635  0.89969991    -0.25850
N163        N  0.05816951  0.09607019  0.95850714    -0.25470
N164        N  0.90938039  0.92825660  0.11117168     0.01570
C165        C  0.09227836  0.85328207  0.88056662     0.42970
C166        C  0.06868388  0.07355451  0.17132936    -0.06720
N167        N  0.92875079  0.10260467  0.94962215    -0.25470
H168        H  0.11540479  0.16166729  0.98427662     0.07110
N169        N  0.07068395  0.84518726  0.93331614    -0.46690
H170        H  0.07300443  0.04783768  0.20868004     0.07100
C171        C  0.85869805  0.13678386  0.14266048     0.42800
C172        C  0.08544736  0.85442700  0.08581536    -0.06220
Co173      Co  0.97476029  0.99174728  0.11883499     0.73820
N174        N  0.06848263  0.14327227  0.10733086    -0.46410
C175        C  0.84991279  0.87384093  0.87448639     0.43070
N176        N  0.87037809  0.91316308  0.15001249    -0.46400
Co177      Co  0.98656845  0.09938279  0.01793300     0.73890
C178        C  0.88580551  0.13901489  0.94216702    -0.06720
C179        C  0.07254937  0.90990227  0.86271984    -0.06290
N180        N  0.91290481  0.89048610  0.07056742    -0.25810
N181        N  0.10473270  0.07232961  0.88074391    -0.46580
H182        H  0.87938474  0.94826034  0.81671689     0.07070
C183        C  0.87837115  0.07908370  0.15895437    -0.06700
Cl184      Cl  0.98149602  0.99624509  0.01267872    -0.49700
C185        C  0.08471755  0.13427544  0.16189384     0.42830
H186        H  0.87239054  0.80950929  0.05785549     0.07040
N187        N  0.88705871  0.14779665  0.09296352    -0.46410
C188        C  0.64722355  0.15154957  0.34468600    -0.02260
C189        C  0.82237310  0.17930831  0.17956761    -0.02260
C190        C  0.63480956  0.32627011  0.20511929    -0.02260
C191        C  0.81807426  0.30978320  0.36451979    -0.02260
C192        C  0.85340227  0.35727183  0.39426169     0.42680
N193        N  0.92060183  0.39414552  0.44751992     0.01570
C194        C  0.91174108  0.63402071  0.62050821    -0.06310
H195        H  0.94010348  0.68055592  0.40470508     0.07060
C196        C  0.13720388  0.56661981  0.43054842    -0.06660
Co197      Co  0.87905689  0.49878502  0.51022585     0.74180
N198        N  0.92823580  0.60255956  0.45247127    -0.25830
Co199      Co  0.99071471  0.59943813  0.52208708     0.74070
C200        C  0.12748181  0.62436162  0.40796360     0.42780
N201        N  0.10237235  0.42777076  0.46967199     0.01190
N202        N  0.06176846  0.60005366  0.46902959     0.01290
N203        N  0.83536259  0.57701065  0.61054082    -0.46680
H204        H  0.79434792  0.43336208  0.41236481     0.07050
N205        N  0.88753709  0.56331601  0.44905724     0.01580
N206        N  0.05225262  0.59422607  0.58929220     0.01320
C207        C  0.11503527  0.61380775  0.65494252     0.42920
N208        N  0.05675127  0.39870110  0.45372808    -0.25290
C209        C  0.82732239  0.42352349  0.60485056    -0.06210
N210        N  0.90613180  0.34902954  0.41741788    -0.46400
N211        N  0.07034636  0.63492454  0.62361585    -0.46620
C212        C  0.83573119  0.36693168  0.62878478     0.42700
N213        N  0.87740471  0.56315515  0.57431463     0.01570
N214        N  0.04195490  0.38166032  0.58068631    -0.25310
N215        N  0.87960289  0.43279972  0.44805185    -0.25810
N216        N  0.08097029  0.42030912  0.59200206     0.01200
H217        H  0.03147473  0.29667515  0.60623594     0.07090
H218        H  0.15335890  0.52491652  0.64920897     0.07130
N219        N  0.92164370  0.59792375  0.57854938    -0.25850
N220        N  0.09754976  0.55680078  0.47067143    -0.25470
N221        N  0.90774229  0.39062806  0.57108932     0.01570
C222        C  0.86198051  0.62324915  0.38241567     0.42970
C223        C  0.07238866  0.37605640  0.40356138    -0.06720
N224        N  0.08455377  0.54881202  0.59463254    -0.25470
H225        H  0.16520814  0.53446492  0.41672586     0.07110
N226        N  0.84839163  0.57433484  0.40939085    -0.46690
H227        H  0.04298837  0.35459850  0.37598283     0.07100
C228        C  0.10346934  0.34906707  0.64990670     0.42800
C229        C  0.83585410  0.41347919  0.41536240    -0.06220
Co230      Co  0.98202284  0.39098251  0.51256502     0.73820
N231        N  0.15058034  0.41619280  0.44049343    -0.46410
C232        C  0.85323463  0.62284809  0.64090830     0.43070
N233        N  0.88733985  0.35017468  0.60590967    -0.46400
Co234      Co  0.09127864  0.48846312  0.53225759     0.73890
C235        C  0.12222720  0.55586070  0.63677570    -0.06720
C236        C  0.91635932  0.64165584  0.41118027    -0.06290
N237        N  0.87194582  0.43384274  0.56988265    -0.25810
N238        N  0.07908952  0.64185334  0.43456187    -0.46580
H239        H  0.94220431  0.66513688  0.63371616     0.07070
C240        C  0.05307877  0.33567643  0.61334756    -0.06700
Cl241      Cl  0.98567318  0.49419119  0.51896636    -0.49700
C242        C  0.13697711  0.37959496  0.39867847     0.42830
H243        H  0.79213511  0.45185528  0.60972837     0.07040
N244        N  0.11708480  0.40289124  0.63261433    -0.46410
C245        C  0.67729342  0.31735446  0.30359910    -0.05560
C246        C  0.66762779  0.35276811  0.25840139     0.00370
C247        C  0.70853934  0.39810398  0.26237856    -0.08200
C248        C  0.76154403  0.39024663  0.29701275    -0.05580
C249        C  0.77227378  0.33532823  0.32188149     0.00360
C250        C  0.72999742  0.29769913  0.30816863    -0.08110
C251        C  0.74155523  0.24493736  0.28100219     0.62270
H252        H  0.65373083  0.28403933  0.31715750     0.12960
H253        H  0.79054524  0.42489824  0.30565661     0.12970
C254        C  0.68405770  0.45519235  0.25457585     0.62500
F255        F  0.69538509  0.22092170  0.25543357    -0.22670
F256        F  0.76939709  0.20850265  0.31394629    -0.19990
F257        F  0.77549841  0.26026030  0.24129698    -0.19670
F258        F  0.63950832  0.46310600  0.29271436    -0.19720
F259        F  0.66362782  0.46345530  0.20057387    -0.20050
F260        F  0.72614609  0.49314991  0.26538663    -0.22720
C261        C  0.72703376  0.21276938  0.12291465    -0.05560
C262        C  0.78386860  0.22638155  0.14112038     0.00370
C263        C  0.78761968  0.28824750  0.14183331    -0.08200
C264        C  0.73899225  0.32073469  0.16038292    -0.05580
C265        C  0.68391513  0.29633632  0.16765742     0.00360
C266        C  0.67804387  0.24833032  0.13240143    -0.08110
C267        C  0.63305276  0.24684857  0.08650657     0.62270
H268        H  0.72136364  0.17858512  0.09412861     0.12960
H269        H  0.74379033  0.36571725  0.16572521     0.12970
C270        C  0.82629082  0.32325982  0.10403607     0.62500
F271        F  0.65987688  0.26384159  0.03693519    -0.22670
F272        F  0.58730750  0.28269441  0.09513961    -0.19990
F273        F  0.61206149  0.19245338  0.08143908    -0.19670
F274        F  0.79371664  0.34272331  0.05883390    -0.19720
F275        F  0.87226629  0.29360950  0.08358257    -0.20050
F276        F  0.84588999  0.37010781  0.13269888    -0.22720
C277        C  0.88563972  0.18627862  0.27447795    -0.05560
C278        C  0.86702048  0.20954974  0.22253116     0.00370
C279        C  0.88134344  0.26717101  0.22042647    -0.08200
C280        C  0.87450314  0.30061407  0.27017026    -0.05580
C281        C  0.86164749  0.27542908  0.32365733     0.00360
C282        C  0.88139696  0.21730272  0.32612477    -0.08110
C283        C  0.90611231  0.18729256  0.37726214     0.62270
H284        H  0.90431661  0.14463530  0.27457021     0.12960
H285        H  0.87626574  0.34616723  0.26620594     0.12970
C286        C  0.93445423  0.27984900  0.18966990     0.62500
F287        F  0.87238640  0.14116235  0.39109652    -0.22670
F288        F  0.91265017  0.22270735  0.42303545    -0.19990
F289        F  0.95933833  0.16595904  0.36356322    -0.19670
F290        F  0.94121982  0.24722996  0.14193990    -0.19720
F291        F  0.97840212  0.26636406  0.22646225    -0.20050
F292        F  0.93455624  0.33662146  0.17585657    -0.22720
C293        C  0.56872966  0.23404839  0.32679578    -0.05560
C294        C  0.59978099  0.18690379  0.30687415     0.00370
C295        C  0.58523745  0.17849372  0.24804461    -0.08200
C296        C  0.58364948  0.22678624  0.21201326    -0.05580
C297        C  0.58768788  0.28202643  0.23307350     0.00360
C298        C  0.56295737  0.28402005  0.29084393    -0.08110
C299        C  0.54555504  0.33695579  0.32266492     0.62270
H300        H  0.55585085  0.23534256  0.37078555     0.12960
H301        H  0.56963217  0.22122119  0.16935065     0.12970
C302        C  0.55518421  0.12567009  0.22445847     0.62500
F303        F  0.48834203  0.33271676  0.33856289    -0.22670
F304        F  0.55351773  0.38571754  0.29172624    -0.19990
F305        F  0.57768041  0.34211232  0.37170201    -0.19670
F306        F  0.56134017  0.07815919  0.25810243    -0.19720
F307        F  0.57665866  0.11407645  0.17110307    -0.20050
F308        F  0.49682835  0.13453151  0.21812640    -0.22720
C309        C  0.78745082  0.21449173  0.42101892    -0.05560
C310        C  0.77872583  0.27221287  0.40985755     0.00370
C311        C  0.71939186  0.28484631  0.42277075    -0.08200
C312        C  0.67486940  0.24354890  0.41024095    -0.05580
C313        C  0.68832620  0.18904651  0.38857987     0.00360
C314        C  0.74322880  0.17191728  0.41300293    -0.08110
C315        C  0.74718181  0.12349143  0.45544454     0.62270
H316        H  0.82178724  0.20592575  0.45026704     0.12960
H317        H  0.63094837  0.25599587  0.41496329     0.12970
C318        C  0.70316512  0.34213438  0.44515690     0.62500
F319        F  0.80367603  0.11118868  0.46898925    -0.22670
F320        F  0.72468851  0.07384408  0.43794647    -0.19990
F321        F  0.71768325  0.13954195  0.50321046    -0.19670
F322        F  0.70407739  0.38296996  0.40327896    -0.19720
F323        F  0.74162675  0.35697214  0.48718889    -0.20050
F324        F  0.64818304  0.34138566  0.46740191    -0.22720
C325        C  0.68016082  0.10945724  0.24011636    -0.05560
C326        C  0.68893311  0.11679879  0.29978489     0.00370
C327        C  0.74582645  0.09840940  0.31012905    -0.08200
C328        C  0.79063097  0.11434052  0.27084506    -0.05580
C329        C  0.77796974  0.14120979  0.21765714     0.00360
C330        C  0.72464501  0.11955497  0.19824633    -0.08110
C331        C  0.72709862  0.07836981  0.14956498     0.62270
H332        H  0.65149482  0.07567953  0.22976479     0.12960
H333        H  0.83185796  0.09506412  0.27727158     0.12970
C334        C  0.75323989  0.03995786  0.33265341     0.62500
F335        F  0.75092735  0.02968334  0.17124257    -0.22670
F336        F  0.76125919  0.09503664  0.10456058    -0.19990
F337        F  0.67263372  0.06813802  0.12824407    -0.19670
F338        F  0.76871920  0.00571443  0.28810448    -0.19720
F339        F  0.70274094  0.01794158  0.35557567    -0.20050
F340        F  0.79683780  0.04102782  0.37246251    -0.22720
C341        C  0.66486774  0.88785248  0.76870588    -0.05560
C342        C  0.67555831  0.87131965  0.71304483     0.00370
C343        C  0.73360079  0.88576021  0.69582380    -0.08200
C344        C  0.77800283  0.88194311  0.73853539    -0.05580
C345        C  0.76657100  0.86866048  0.79697017     0.00360
C346        C  0.70890054  0.88731140  0.81101966    -0.08110
C347        C  0.69195113  0.91714301  0.86408440     0.62270
H348        H  0.62245509  0.90348628  0.77861581     0.12960
H349        H  0.82052608  0.89450649  0.72657919     0.12970
C350        C  0.75037489  0.89989276  0.63358648     0.62500
F351        F  0.67589400  0.97047242  0.84823867    -0.22670
F352        F  0.73621938  0.91992918  0.90301576    -0.19990
F353        F  0.64376714  0.89219470  0.88832240    -0.19670
F354        F  0.71532727  0.94063217  0.61024725    -0.19720
F355        F  0.74626143  0.85487497  0.59782498    -0.20050
F356        F  0.80660468  0.91925302  0.63021864    -0.22720
C357        C  0.78026462  0.75945410  0.67004428    -0.05560
C358        C  0.78061356  0.70850374  0.64404569     0.00370
C359        C  0.73453712  0.70936821  0.60179061    -0.08200
C360        C  0.68812281  0.75057620  0.60844613    -0.05580
C361        C  0.68422242  0.78085403  0.66064090     0.00360
C362        C  0.73087826  0.77149749  0.69662121    -0.08110
C363        C  0.72056604  0.74606127  0.75214268     0.62270
H364        H  0.79853288  0.79256777  0.64413998     0.12960
H365        H  0.65884409  0.75906878  0.57388019     0.12970
C366        C  0.73856050  0.68311679  0.54436803     0.62500
F367        F  0.68599305  0.70426952  0.74041150    -0.22670
F368        F  0.69511037  0.78052914  0.78892164    -0.19990
F369        F  0.76696711  0.72409622  0.77767886    -0.19670
F370        F  0.69086558  0.65030020  0.53228329    -0.19720
F371        F  0.78784795  0.65175977  0.53799041    -0.20050
F372        F  0.73863767  0.72661802  0.50591495    -0.22720
C373        C  0.87186003  0.69354897  0.77924119    -0.05560
C374        C  0.86366884  0.70070292  0.71917832     0.00370
C375        C  0.88618206  0.75731824  0.70361134    -0.08200
C376        C  0.87495974  0.80350712  0.74215945    -0.05580
C377        C  0.85388091  0.79290330  0.79791266     0.00360
C378        C  0.87971034  0.74164799  0.81550043    -0.08110
C379        C  0.94121649  0.74866542  0.83532781     0.62270
H380        H  0.88683616  0.65342266  0.79501791     0.12960
H381        H  0.89087256  0.84507353  0.73194465     0.12970
C382        C  0.91480179  0.77238896  0.64705311     0.62500
F383        F  0.95709963  0.70210779  0.86730335    -0.22670
F384        F  0.94990278  0.79688362  0.86658890    -0.19990
F385        F  0.97585157  0.75489599  0.78813575    -0.19670
F386        F  0.91364156  0.82998383  0.63658518    -0.19720
F387        F  0.88781961  0.74702978  0.60177618    -0.20050
F388        F  0.97203854  0.75651234  0.64897415    -0.22720
C389        C  0.58064449  0.68284285  0.75087112    -0.05560
C390        C  0.60014051  0.69407546  0.80723571     0.00370
C391        C  0.57830280  0.74763913  0.82224350    -0.08200
C392        C  0.58636079  0.79337315  0.78298527    -0.05580
C393        C  0.59781015  0.78285133  0.72478275     0.00360
C394        C  0.57750181  0.72777463  0.70904126    -0.08110
C395        C  0.54168172  0.72004440  0.65574124     0.62270
H396        H  0.56483876  0.64160247  0.74063186     0.12960
H397        H  0.56968811  0.83392791  0.79450713     0.12970
C398        C  0.51931361  0.74793695  0.84928295     0.62500
F399        F  0.52210429  0.66511778  0.65066977    -0.22670
F400        F  0.57158339  0.73320252  0.60728336    -0.19990
F401        F  0.49473235  0.75543790  0.65814736    -0.19670
F402        F  0.51633696  0.78933475  0.88965024    -0.19720
F403        F  0.50549633  0.69682689  0.87435591    -0.20050
F404        F  0.47897191  0.75803196  0.80751792    -0.22720
C405        C  0.67081917  0.59980950  0.75033191    -0.05560
C406        C  0.68538244  0.61577482  0.80575259     0.00370
C407        C  0.74361259  0.60105658  0.81603523    -0.08200
C408        C  0.78535589  0.60649948  0.77161295    -0.05580
C409        C  0.77054600  0.62458194  0.71661192     0.00360
C410        C  0.71096150  0.60730023  0.70418786    -0.08110
C411        C  0.68445905  0.59699702  0.64682171     0.62270
H412        H  0.62847179  0.58304816  0.74275579     0.12960
H413        H  0.82794906  0.58949124  0.77750821     0.12970
C414        C  0.75414080  0.55408537  0.85714668     0.62500
F415        F  0.64722894  0.55178619  0.64796286    -0.22670
F416        F  0.72572807  0.58535071  0.60716209    -0.19990
F417        F  0.65027696  0.64193640  0.63182758    -0.19670
F418        F  0.73737292  0.50614983  0.82953532    -0.19720
F419        F  0.72209545  0.55711585  0.90571251    -0.20050
F420        F  0.81162136  0.55304733  0.87278907    -0.22720
C421        C  0.74839012  0.68889767  0.89079750    -0.05560
C422        C  0.68961942  0.69999793  0.87840817     0.00370
C423        C  0.67445301  0.75277832  0.90197492    -0.08200
C424        C  0.71713082  0.79728122  0.89979993    -0.05580
C425        C  0.77452044  0.78864206  0.87959895     0.00360
C426        C  0.79089079  0.73232189  0.89450018    -0.08110
C427        C  0.83878545  0.72073426  0.93717704     0.62270
H428        H  0.75955963  0.64821856  0.90725981     0.12960
H429        H  0.71046192  0.83224848  0.92695224     0.12970
C430        C  0.62695166  0.75547381  0.94673160     0.62500
F431        F  0.81818650  0.72754684  0.99083622    -0.22670
F432        F  0.88392749  0.75706841  0.93351610    -0.19990
F433        F  0.85957449  0.66642409  0.93173217    -0.19670
F434        F  0.64759779  0.74164765  0.99920918    -0.19720
F435        F  0.58394958  0.71706671  0.93857547    -0.20050
F436        F  0.60378311  0.80885689  0.94895868    -0.22720
C437        C  0.67040651  0.74814389  0.11857639    -0.05560
C438        C  0.68777993  0.69100873  0.13222599     0.00370
C439        C  0.74463360  0.68224989  0.11116310    -0.08200
C440        C  0.78458469  0.72891093  0.11553403    -0.05580
C441        C  0.76754555  0.78230924  0.13799492     0.00360
C442        C  0.71241103  0.79369232  0.11543407    -0.08110
C443        C  0.71422266  0.82498252  0.05879111     0.62270
H444        H  0.62504178  0.75859014  0.11724164     0.12960
H445        H  0.82542972  0.72633142  0.09420947     0.12970
C446        C  0.75078279  0.64790894  0.05744831     0.62500
F447        F  0.73539327  0.78942164  0.01851823    -0.22670
F448        F  0.75191221  0.86960048  0.05824501    -0.19990
F449        F  0.66012994  0.84359907  0.04292675    -0.19670
F450        F  0.72905812  0.67798209  0.01248823    -0.19720
F451        F  0.72023107  0.59842094  0.05942920    -0.20050
F452        F  0.80796769  0.63571822  0.04623995    -0.22720
C453        C  0.79124568  0.59094165  0.25585827    -0.05560
C454        C  0.77785610  0.60828239  0.31133236     0.00370
C455        C  0.71944901  0.59111162  0.32430232    -0.08200
C456        C  0.67619175  0.59680791  0.27946081    -0.05580
C457        C  0.69250347  0.61012300  0.22164407     0.00360
C458        C  0.74983437  0.58972309  0.21043765    -0.08110
C459        C  0.76172265  0.54737366  0.16343316     0.62270
H460        H  0.82981618  0.56649475  0.25250445     0.12960
H461        H  0.63092170  0.59544783  0.29050807     0.12970
C462        C  0.70632005  0.55378522  0.37665541     0.62500
F463        F  0.80023919  0.56861046  0.12484906    -0.22670
F464        F  0.71160297  0.53182374  0.13638645    -0.19990
F465        F  0.78700864  0.49858508  0.18421689    -0.19670
F466        F  0.73746215  0.56896193  0.42403996    -0.19720
F467        F  0.72064878  0.49854305  0.36697465    -0.20050
F468        F  0.64822230  0.55579192  0.38978584    -0.22720
C469        C  0.87014437  0.74962617  0.30918828    -0.05560
C470        C  0.85381718  0.69411038  0.29676527     0.00370
C471        C  0.87169940  0.68282329  0.23831242    -0.08200
C472        C  0.86940566  0.72809391  0.19687217    -0.05580
C473        C  0.85190238  0.78314011  0.21164739     0.00360
C474        C  0.87476069  0.79264166  0.26643158    -0.08110
C475        C  0.92862987  0.82662837  0.26978800     0.62270
H476        H  0.89262739  0.75476689  0.34784884     0.12960
H477        H  0.88767016  0.72180878  0.15540645     0.12970
C478        C  0.90891905  0.63401758  0.21980294     0.62500
F479        F  0.92939965  0.85592322  0.32011114    -0.22670
F480        F  0.93434862  0.86435677  0.22521847    -0.19990
F481        F  0.97385310  0.78914564  0.26705823    -0.19670
F482        F  0.88209941  0.60297637  0.17866270    -0.19720
F483        F  0.92437791  0.59951583  0.26502249    -0.20050
F484        F  0.95781063  0.65535397  0.19374843    -0.22720
C485        C  0.66128408  0.79541290  0.24349897    -0.05560
C486        C  0.62815659  0.80560123  0.28962192     0.00370
C487        C  0.57513635  0.77338554  0.27889896    -0.08200
C488        C  0.57862325  0.72052220  0.24498062    -0.05580
C489        C  0.63349122  0.70242273  0.22383677     0.00360
C490        C  0.67602715  0.74210818  0.23495712    -0.08110
C491        C  0.73127466  0.72658445  0.25719915     0.62270
H492        H  0.69581057  0.81769480  0.23389164     0.12960
H493        H  0.54045940  0.69830449  0.23121595     0.12970
C494        C  0.52156257  0.80837255  0.26826135     0.62500
F495        F  0.71513693  0.69334063  0.29749983    -0.22670
F496        F  0.76139891  0.76939678  0.28181277    -0.19990
F497        F  0.76340105  0.69886178  0.21992853    -0.19670
F498        F  0.53622275  0.85718978  0.23859336    -0.19720
F499        F  0.49607818  0.82226709  0.31863379    -0.20050
F500        F  0.48144257  0.78042620  0.23540612    -0.22720
C501        C  0.68909538  0.91163438  0.26354520    -0.05560
C502        C  0.70615863  0.88384727  0.31435516     0.00370
C503        C  0.76823545  0.88532566  0.31892864    -0.08200
C504        C  0.80073925  0.88125250  0.26852674    -0.05580
C505        C  0.77606165  0.87089470  0.21574433     0.00360
C506        C  0.72323711  0.90564001  0.21216523    -0.08110
C507        C  0.69240558  0.92558523  0.15967578     0.62270
H508        H  0.64427263  0.92384766  0.26011183     0.12960
H509        H  0.84532485  0.89283601  0.26885764     0.12970
C510        C  0.80191091  0.91105860  0.36809300     0.62500
F511        F  0.65466065  0.88505890  0.14117465    -0.22670
F512        F  0.73105406  0.94241228  0.11861365    -0.19990
F513        F  0.65856903  0.97163922  0.17207352    -0.19670
F514        F  0.83857645  0.87231655  0.39222473    -0.19720
F515        F  0.76550339  0.93266691  0.40892937    -0.20050
F516        F  0.83852707  0.95308261  0.34868837    -0.22720
C517        C  0.75120388  0.79811378  0.40126551    -0.05560
C518        C  0.69518979  0.79032050  0.37915012     0.00370
C519        C  0.67565957  0.73477908  0.39255425    -0.08200
C520        C  0.71752935  0.69051760  0.39898201    -0.05580
C521        C  0.77797734  0.69843958  0.38567895     0.00360
C522        C  0.79398301  0.75393191  0.40535047    -0.08110
C523        C  0.84023872  0.76129434  0.45187730     0.62270
H524        H  0.75556353  0.83512159  0.42649269     0.12960
H525        H  0.69931952  0.65095286  0.40852763     0.12970
C526        C  0.61313890  0.71950675  0.40314365     0.62500
F527        F  0.81998313  0.79485829  0.49520224    -0.22670
F528        F  0.89017952  0.78689046  0.43282886    -0.19990
F529        F  0.85449084  0.71022795  0.47608179    -0.19670
F530        F  0.57744879  0.76582602  0.40201052    -0.19720
F531        F  0.60800518  0.69443785  0.45620728    -0.20050
F532        F  0.59492840  0.68131782  0.36309227    -0.22720
C533        C  0.13181659  0.74700933  0.71910596    -0.05560
C534        C  0.11700672  0.69148553  0.72443792     0.00370
C535        C  0.07963519  0.68315677  0.77338889    -0.08200
C536        C  0.08130900  0.72709741  0.81751498    -0.05580
C537        C  0.12079744  0.77436897  0.81128514     0.00360
C538        C  0.15862609  0.76499839  0.76665628    -0.08110
C539        C  0.21450264  0.74129991  0.78483691     0.62270
H540        H  0.09681096  0.77369659  0.70428186     0.12960
H541        H  0.05519338  0.72366205  0.85510690     0.12970
C542        C  0.03251116  0.63817972  0.77352724     0.62500
F543        F  0.24528947  0.71444458  0.74614550    -0.22670
F544        F  0.19997448  0.70233519  0.82217535    -0.19990
F545        F  0.24902103  0.77943113  0.80979157    -0.19670
F546        F  0.01926143  0.62174293  0.82848614    -0.19720
F547        F  0.04679210  0.59050527  0.74378726    -0.20050
F548        F  0.98436822  0.65960503  0.74732409    -0.22720
C549        C  0.29875262  0.71710232  0.65264056    -0.05560
C550        C  0.27889694  0.77381300  0.66005894     0.00370
C551        C  0.23283455  0.78111623  0.62206993    -0.08200
C552        C  0.18833807  0.73781005  0.62350285    -0.05580
C553        C  0.19985768  0.68417801  0.64963185     0.00360
C554        C  0.25865660  0.67217912  0.64251257    -0.08110
C555        C  0.27124293  0.64127716  0.58943653     0.62270
H556        H  0.34172296  0.71163151  0.63617748     0.12960
H557        H  0.14611561  0.74620943  0.60583269     0.12970
C558        C  0.25143731  0.79978163  0.56318539     0.62500
F559        F  0.27705689  0.68217282  0.54873403    -0.22670
F560        F  0.22575478  0.60713892  0.57286804    -0.19990
F561        F  0.32174366  0.61073714  0.59371182    -0.19670
F562        F  0.22305111  0.76761722  0.52499857    -0.19720
F563        F  0.30985200  0.79148513  0.55395057    -0.20050
F564        F  0.23936884  0.85521645  0.55222342    -0.22720
C565        C  0.27037262  0.88743369  0.78136031    -0.05560
C566        C  0.25908763  0.86237716  0.72799628     0.00370
C567        C  0.19840797  0.87071612  0.71307390    -0.08200
C568        C  0.15737779  0.87590749  0.75805766    -0.05580
C569        C  0.17485424  0.86631284  0.81503783     0.00360
C570        C  0.22808363  0.89152216  0.82513346    -0.08110
C571        C  0.22861500  0.94390260  0.86098973     0.62270
H572        H  0.30710978  0.91378253  0.78430437     0.12960
H573        H  0.11191176  0.87364745  0.74765594     0.12970
C574        C  0.17614493  0.89278281  0.65619543     0.62500
F575        F  0.27138189  0.94158020  0.90107543    -0.22670
F576        F  0.17671400  0.95405409  0.88732339    -0.19990
F577        F  0.23804961  0.98940899  0.82641237    -0.19670
F578        F  0.14878689  0.85146907  0.62569914    -0.19720
F579        F  0.22033169  0.91734775  0.62604273    -0.20050
F580        F  0.13453610  0.93384549  0.66316227    -0.22720
C581        C  0.16990786  0.59825345  0.79090992    -0.05560
C582        C  0.19199211  0.60996017  0.73636859     0.00370
C583        C  0.25128181  0.59337534  0.73325138    -0.08200
C584        C  0.28581259  0.59885835  0.78285910    -0.05580
C585        C  0.26488834  0.61850708  0.83416204     0.00360
C586        C  0.20481895  0.60016904  0.84044861    -0.08110
C587        C  0.17375798  0.57866321  0.89307179     0.62270
H588        H  0.12574980  0.58748514  0.79629127     0.12960
H589        H  0.32050564  0.57011909  0.78891618     0.12970
C590        C  0.26752172  0.54185607  0.69980486     0.62500
F591        F  0.13102732  0.61585030  0.90785204    -0.22670
F592        F  0.21141545  0.56695732  0.93656655    -0.19990
F593        F  0.14397120  0.52978925  0.88214841    -0.19670
F594        F  0.24696604  0.54226215  0.64589885    -0.19720
F595        F  0.24485319  0.49526736  0.72718332    -0.20050
F596        F  0.32678352  0.53614161  0.69624240    -0.22720
C597        C  0.27862557  0.76118210  0.92390026    -0.05560
C598        C  0.26678735  0.70347804  0.91087590     0.00370
C599        C  0.21023000  0.69150293  0.93111577    -0.08200
C600        C  0.16538731  0.73175740  0.91923120    -0.05580
C601        C  0.17947315  0.78759950  0.90144738     0.00360
C602        C  0.23474783  0.80383354  0.92130409    -0.08110
C603        C  0.23592229  0.84583223  0.96886633     0.62270
H604        H  0.31766761  0.77040429  0.94692656     0.12960
H605        H  0.12082832  0.72043783  0.92648778     0.12970
C606        C  0.20776530  0.66992581  0.99082220     0.62500
F607        F  0.29032175  0.86893852  0.97558045    -0.22670
F608        F  0.22100339  0.81857556  0.01795121    -0.19990
F609        F  0.19565413  0.88752766  0.96201301    -0.19670
F610        F  0.21241516  0.71609147  0.02405301    -0.19720
F611        F  0.25341580  0.63575792  0.00307670    -0.20050
F612        F  0.15706416  0.64175554  0.00368129    -0.22720
C613        C  0.36148408  0.75756243  0.84341511    -0.05560
C614        C  0.34553867  0.70205882  0.82721261     0.00370
C615        C  0.36945416  0.69310164  0.77067263    -0.08200
C616        C  0.37552301  0.74122575  0.73369325    -0.05580
C617        C  0.35001024  0.79307808  0.74539216     0.00360
C618        C  0.36111691  0.80459625  0.80444833    -0.08110
C619        C  0.38851873  0.85868587  0.82695126     0.62270
H620        H  0.37977656  0.76312346  0.88497532     0.12960
H621        H  0.40003819  0.73863152  0.69503798     0.12970
C622        C  0.40533454  0.64395042  0.74869694     0.62500
F623        F  0.44089816  0.84774398  0.85118146    -0.22670
F624        F  0.35444931  0.88041320  0.86921684    -0.19990
F625        F  0.39895298  0.89924141  0.78595369    -0.19670
F626        F  0.40783736  0.59565688  0.78062485    -0.19720
F627        F  0.46127936  0.66246291  0.74379975    -0.20050
F628        F  0.38643333  0.62960242  0.69521919    -0.22720
C629        C  0.69127760  0.07620728  0.79819724    -0.05560
C630        C  0.69761074  0.09590191  0.73957431     0.00370
C631        C  0.75510936  0.08524720  0.72528886    -0.08200
C632        C  0.79864498  0.10499926  0.76205888    -0.05580
C633        C  0.78516765  0.12265833  0.81711335     0.00360
C634        C  0.73871601  0.08805130  0.83825178    -0.08110
C635        C  0.74496746  0.05793379  0.89515101     0.62270
H636        H  0.64903636  0.06560096  0.81476866     0.12960
H637        H  0.84189247  0.08950097  0.75590174     0.12970
C638        C  0.76582531  0.02606981  0.70731478     0.62500
F639        F  0.69182844  0.04317149  0.91756855    -0.22670
F640        F  0.77303075  0.08943943  0.93549837    -0.19990
F641        F  0.77859740  0.01120253  0.88653900    -0.19670
F642        F  0.81330545  0.02242147  0.67202995    -0.19720
F643        F  0.71707309  0.00696924  0.68061831    -0.20050
F644        F  0.77527363  0.99322953  0.75513369    -0.22720
C645        C  0.77017455  0.23972929  0.61753748    -0.05560
C646        C  0.74999417  0.29164887  0.63483424     0.00370
C647        C  0.68769618  0.28856948  0.63413206    -0.08200
C648        C  0.65918415  0.23713402  0.65086909    -0.05580
C649        C  0.68925796  0.18640838  0.66369131     0.00360
C650        C  0.74573318  0.18681507  0.63549010    -0.08110
C651        C  0.78148266  0.13727311  0.61519750     0.62270
H652        H  0.80144995  0.24185745  0.58462140     0.12960
H653        H  0.61276623  0.23707504  0.65296513     0.12970
C654        C  0.65010741  0.32972372  0.60280418     0.62500
F655        F  0.80533212  0.14902889  0.56300365    -0.22670
F656        F  0.75032895  0.08846324  0.60993050    -0.19990
F657        F  0.82813287  0.12901831  0.65007310    -0.19670
F658        F  0.68246238  0.37102921  0.57648307    -0.19720
F659        F  0.61037520  0.35303564  0.63916786    -0.20050
F660        F  0.61964153  0.30111490  0.56167156    -0.22720
C661        C  0.86545628  0.19839916  0.74416790    -0.05560
C662        C  0.85418946  0.21236361  0.80164861     0.00370
C663        C  0.87315524  0.26956810  0.80802636    -0.08200
C664        C  0.86003687  0.30995411  0.76393244    -0.05580
C665        C  0.83561754  0.29316551  0.71130942     0.00360
C666        C  0.85996754  0.23893811  0.69824506    -0.08110
C667        C  0.90729190  0.23547972  0.65363230     0.62270
H668        H  0.88952802  0.16048304  0.73746995     0.12960
H669        H  0.88042437  0.35071176  0.76624664     0.12970
C670        C  0.93022903  0.27980386  0.83557978     0.62500
F671        F  0.93229865  0.18265732  0.65298288    -0.22670
F672        F  0.94745759  0.27592293  0.66793945    -0.19990
F673        F  0.89127109  0.24551288  0.59864544    -0.19670
F674        F  0.94892924  0.23048460  0.86023459    -0.19720
F675        F  0.92675453  0.32211202  0.87508545    -0.20050
F676        F  0.97058167  0.29611477  0.79512379    -0.22720
C677        C  0.57927917  0.26914776  0.78994001    -0.05560
C678        C  0.63360685  0.28312639  0.81694203     0.00370
C679        C  0.67373847  0.24294933  0.80315208    -0.08200
C680        C  0.65652017  0.18982488  0.79819666    -0.05580
C681        C  0.62322297  0.17713842  0.75263167     0.00360
C682        C  0.57549209  0.21708312  0.75386127    -0.08110
C683        C  0.51869934  0.19647963  0.73343284     0.62270
H684        H  0.54264557  0.29646157  0.79607837     0.12960
H685        H  0.69092022  0.16853149  0.81176848     0.12970
C686        C  0.72772425  0.25644706  0.77639416     0.62500
F687        F  0.47718517  0.23366698  0.74963311    -0.22670
F688        F  0.50641985  0.14486043  0.75873186    -0.19990
F689        F  0.51877008  0.19081603  0.67520015    -0.19670
F690        F  0.76319006  0.28379326  0.81100876    -0.19720
F691        F  0.71193790  0.28896478  0.73537340    -0.20050
F692        F  0.75398999  0.21173813  0.75205396    -0.22720
C693        C  0.75236451  0.30481953  0.91951787    -0.05560
C694        C  0.69541214  0.29419538  0.90430653     0.00370
C695        C  0.68082288  0.23691749  0.91811055    -0.08200
C696        C  0.72357794  0.19490759  0.90842972    -0.05580
C697        C  0.78228276  0.20818424  0.89312065     0.00360
C698        C  0.79698291  0.26291890  0.91580964    -0.08110
C699        C  0.84312365  0.26976066  0.96047292     0.62270
H700        H  0.75838007  0.34105307  0.94573733     0.12960
H701        H  0.70625023  0.15358281  0.90879501     0.12970
C702        C  0.61970391  0.21805936  0.93365064     0.62500
F703        F  0.85334108  0.32578281  0.97282939    -0.22670
F704        F  0.89543874  0.24875734  0.94542098    -0.19990
F705        F  0.82336194  0.24211212  0.00864072    -0.19670
F706        F  0.59178147  0.19160306  0.88979832    -0.19720
F707        F  0.58650662  0.26315006  0.95047731    -0.20050
F708        F  0.62245150  0.17914300  0.97745967    -0.22720
C709        C  0.66779883  0.38332743  0.76151965    -0.05560
C710        C  0.69566159  0.37280245  0.81415436     0.00370
C711        C  0.75572553  0.39266198  0.81269347    -0.08200
C712        C  0.78395928  0.39999899  0.75883766    -0.05580
C713        C  0.75965986  0.37989925  0.70877008     0.00360
C714        C  0.69896237  0.39223215  0.70951216    -0.08110
C715        C  0.68031166  0.44741603  0.68385102     0.62270
H716        H  0.62110909  0.38252008  0.76024439     0.12960
H717        H  0.82645815  0.41845429  0.75567982     0.12970
C718        C  0.79224821  0.41136709  0.86243728     0.62500
F719        F  0.62074369  0.45248602  0.68424986    -0.22670
F720        F  0.69882191  0.45499416  0.62905651    -0.19990
F721        F  0.70388060  0.48945622  0.71654766    -0.19670
F722        F  0.83035629  0.37006115  0.87710613    -0.19720
F723        F  0.75861153  0.42789224  0.90772684    -0.20050
F724        F  0.82760122  0.45595128  0.84718654    -0.22720
C725        C  0.30622277  0.73996530  0.40128970    -0.05560
C726        C  0.28111968  0.78962382  0.38105895     0.00370
C727        C  0.22526578  0.79747219  0.40830985    -0.08200
C728        C  0.19418998  0.74741366  0.42465875    -0.05580
C729        C  0.21171297  0.69432419  0.40764239     0.00360
C730        C  0.27371788  0.69060975  0.41198317    -0.08110
C731        C  0.30655668  0.64579879  0.44411405     0.62270
H732        H  0.35112134  0.74061157  0.41003048     0.12960
H733        H  0.15373507  0.74927875  0.44749832     0.12970
C734        C  0.19790590  0.85190060  0.43000436     0.62500
F735        F  0.33819261  0.61432239  0.40797386    -0.22670
F736        F  0.26945938  0.61251985  0.47518154    -0.19990
F737        F  0.34728934  0.66907857  0.48008529    -0.19670
F738        F  0.15712460  0.86870470  0.39338893    -0.19720
F739        F  0.23539329  0.89602282  0.43835025    -0.20050
F740        F  0.16745487  0.84328178  0.47969843    -0.22440
C741        C  0.09391689  0.73274189  0.23336051    -0.05560
C742        C  0.11549261  0.78970744  0.23636545     0.00370
C743        C  0.10997735  0.80713625  0.29420831    -0.08200
C744        C  0.11965192  0.76560846  0.33856508    -0.05580
C745        C  0.12858251  0.70643887  0.32877723     0.00360
C746        C  0.09510375  0.69343955  0.28039572    -0.08110
C747        C  0.04465089  0.65309367  0.28496906     0.62270
H748        H  0.06829805  0.71958725  0.19893234     0.12960
H749        H  0.10529315  0.77745929  0.38000167     0.12970
C750        C  0.06717789  0.85398991  0.30865693     0.62500
F751        F  0.99527687  0.68476065  0.28930119    -0.22670
F752        F  0.04552035  0.61791201  0.33156835    -0.19990
F753        F  0.04273310  0.61966555  0.23763155    -0.19670
F754        F  0.03840959  0.87171044  0.26091230    -0.19720
F755        F  0.09066898  0.90140889  0.33177446    -0.20050
F756        F  0.02800326  0.83389687  0.34832127    -0.22720
C757        C  0.23090944  0.89045558  0.30957852    -0.05560
C758        C  0.28717643  0.87195582  0.29786422     0.00370
C759        C  0.30051530  0.88671361  0.23893608    -0.08200
C760        C  0.25502836  0.88050149  0.19732786    -0.05580
C761        C  0.19678262  0.86832746  0.21391502     0.00360
C762        C  0.18850444  0.89780992  0.26529613    -0.08110
C763        C  0.16532063  0.95712270  0.25832058     0.62270
H764        H  0.22903889  0.91719774  0.34568217     0.12960
H765        H  0.26391700  0.89408119  0.15441955     0.12970
C766        C  0.36118474  0.90133015  0.21732881     0.62500
F767        F  0.17462121  0.98809368  0.30662437    -0.22670
F768        F  0.10756010  0.95716532  0.24703450    -0.19990
F769        F  0.19249452  0.98373678  0.21321865    -0.19670
F770        F  0.37214478  0.87476900  0.16647346    -0.19720
F771        F  0.40329417  0.88621734  0.25565243    -0.20050
F772        F  0.36675001  0.95814379  0.20706684    -0.22720
C773        C  0.37444369  0.68226245  0.25950686    -0.05560
C774        C  0.32782923  0.68893506  0.21781816     0.00370
C775        C  0.29951711  0.73959154  0.22767815    -0.08200
C776        C  0.33621740  0.78278016  0.24106757    -0.05580
C777        C  0.35481337  0.78179913  0.29663748     0.00360
C778        C  0.38519588  0.72691502  0.30265643    -0.08110
C779        C  0.43247089  0.71540128  0.34571782     0.62270
H780        H  0.39986603  0.64417219  0.26050073     0.12960
H781        H  0.37147368  0.78690429  0.21101823     0.12970
C782        C  0.24581986  0.73376479  0.26093206     0.62500
F783        F  0.48277455  0.70322940  0.31796783    -0.22670
F784        F  0.41972880  0.66869641  0.37820110    -0.19990
F785        F  0.44202042  0.76030552  0.38134468    -0.19670
F786        F  0.25991220  0.70405539  0.30667548    -0.19720
F787        F  0.20383456  0.70584911  0.23396798    -0.20050
F788        F  0.22434417  0.78292938  0.27840246    -0.22720
C789        C  0.28456146  0.59522108  0.27528424    -0.05560
C790        C  0.25717539  0.60624725  0.22350657     0.00370
C791        C  0.19653298  0.59301507  0.22573692    -0.08200
C792        C  0.16792274  0.59709500  0.27861381    -0.05580
C793        C  0.19670612  0.61554078  0.32699874     0.00360
C794        C  0.25459810  0.59521890  0.32784916    -0.08110
C795        C  0.26869321  0.54107516  0.35871851     0.62270
H796        H  0.32930794  0.58321166  0.27342743     0.12960
H797        H  0.12464933  0.58204474  0.28312046     0.12970
C798        C  0.16379880  0.55944264  0.18225837     0.62500
F799        F  0.32751866  0.53171006  0.35554700    -0.22670
F800        F  0.23796231  0.49848958  0.33320088    -0.19990
F801        F  0.25616024  0.53905446  0.41500211    -0.19670
F802        F  0.14393616  0.51049304  0.20798987    -0.19720
F803        F  0.19732507  0.54621979  0.13588838    -0.20050
F804        F  0.11554006  0.58800456  0.16458901    -0.22720
C805        C  0.19411282  0.67667640  0.12894534    -0.05560
C806        C  0.25472564  0.68168689  0.13595271     0.00370
C807        C  0.27462361  0.73537731  0.11606034    -0.08200
C808        C  0.23826697  0.78316308  0.12495018    -0.05580
C809        C  0.18003039  0.77863515  0.14422199     0.00360
C810        C  0.15598362  0.72459823  0.12876522    -0.08110
C811        C  0.09843393  0.71816119  0.09648532     0.62270
H812        H  0.17934473  0.63840490  0.11063909     0.12960
H813        H  0.25428560  0.82285707  0.11090389     0.12970
C814        C  0.33284335  0.74185882  0.08654425     0.62500
F815        F  0.10636427  0.72992824  0.03965127    -0.22670
F816        F  0.05497257  0.75281670  0.11502396    -0.19990
F817        F  0.07769130  0.66365804  0.10078924    -0.19670
F818        F  0.33438900  0.70730826  0.03985329    -0.19720
F819        F  0.37800068  0.72709454  0.12160734    -0.20050
F820        F  0.34208410  0.79675541  0.06798510    -0.22720
C821        C  0.29004047  0.38332350  0.74089658    -0.05560
C822        C  0.27785028  0.37382642  0.79860614     0.00370
C823        C  0.22026377  0.38821625  0.81159089    -0.08200
C824        C  0.17728535  0.38240278  0.76867645    -0.05580
C825        C  0.18995123  0.35669562  0.71658181     0.00360
C826        C  0.24740094  0.37551741  0.69802330    -0.08110
C827        C  0.26468744  0.40061827  0.64027210     0.62270
H828        H  0.33327388  0.39588591  0.72962850     0.12960
H829        H  0.13455999  0.39916594  0.77488762     0.12970
C830        C  0.20921321  0.43108211  0.85626183     0.62500
F831        F  0.30653747  0.44176317  0.64588955    -0.22670
F832        F  0.21953895  0.42654183  0.61324708    -0.19990
F833        F  0.28964851  0.36113134  0.60640679    -0.19670
F834        F  0.22028310  0.48288449  0.83193713    -0.19720
F835        F  0.24442363  0.42557186  0.90287042    -0.20050
F836        F  0.15254352  0.42687300  0.87441521    -0.22720
C837        C  0.28347151  0.19430018  0.90950553    -0.05560
C838        C  0.22267830  0.19600716  0.90560159     0.00370
C839        C  0.20570996  0.25002549  0.92463510    -0.08200
C840        C  0.23083353  0.29675093  0.89763850    -0.05580
C841        C  0.28967201  0.29448449  0.88238023     0.00360
C842        C  0.31810520  0.24447678  0.90396402    -0.08110
C843        C  0.38111445  0.24461389  0.92205549     0.62270
H844        H  0.30082960  0.15910678  0.93085435     0.12960
H845        H  0.20758617  0.33505551  0.90047932     0.12970
C846        C  0.20943649  0.26011285  0.98719121     0.62500
F847        F  0.39712878  0.19317713  0.94512477    -0.22670
F848        F  0.38934988  0.28481076  0.96322603    -0.19990
F849        F  0.41753894  0.25644800  0.87708167    -0.19670
F850        F  0.26445865  0.27587614  0.00276878    -0.19720
F851        F  0.19593564  0.21082339  0.01524608    -0.20050
F852        F  0.17372318  0.30395387  0.00181728    -0.22720
C853        C  0.11450575  0.17655132  0.78077994    -0.05560
C854        C  0.14166945  0.19532155  0.82960871     0.00370
C855        C  0.11640868  0.24894742  0.84406207    -0.08200
C856        C  0.10825176  0.28981214  0.79889986    -0.05580
C857        C  0.10954524  0.27434757  0.74065869     0.00360
C858        C  0.09400977  0.21481579  0.73889979    -0.08110
C859        C  0.04092161  0.19348900  0.70976726     0.62270
H860        H  0.09981689  0.13355948  0.78036133     0.12960
H861        H  0.08995716  0.33001139  0.80917556     0.12970
C862        C  0.07334568  0.25159668  0.89272584     0.62500
F863        F  0.04576311  0.13698173  0.69613504    -0.22670
F864        F  0.03205471  0.22223096  0.66048985    -0.19990
F865        F  0.99454348  0.19971549  0.74572553    -0.19670
F866        F  0.03753265  0.29764047  0.88777948    -0.19720
F867        F  0.09805682  0.25603799  0.94445028    -0.20050
F868        F  0.04066693  0.20297299  0.89311586    -0.22720
C869        C  0.35105489  0.19765699  0.76840815    -0.05560
C870        C  0.35454241  0.19887799  0.71021768     0.00370
C871        C  0.37941968  0.25442099  0.69474158    -0.08200
C872        C  0.38036375  0.29900461  0.73909916    -0.05580
C873        C  0.34655167  0.29067922  0.79136574     0.00360
C874        C  0.31705879  0.23932465  0.78882964    -0.08110
C875        C  0.25805859  0.24472832  0.76431413     0.62270
H876        H  0.39123455  0.19056535  0.79084964     0.12960
H877        H  0.40411193  0.33771911  0.73163115     0.12970
C878        C  0.41008682  0.26632578  0.63919955     0.62500
F879        F  0.26568390  0.27228625  0.71541588    -0.22670
F880        F  0.22130496  0.27451882  0.79529827    -0.19990
F881        F  0.23167752  0.19567885  0.75349891    -0.19670
F882        F  0.38368797  0.30996159  0.61050767    -0.19720
F883        F  0.41113532  0.21926263  0.60519796    -0.20050
F884        F  0.46616318  0.28318420  0.64941325    -0.22720
C885        C  0.26951161  0.23524685  0.61543135    -0.05560
C886        C  0.26359911  0.18080224  0.64186748     0.00370
C887        C  0.20369097  0.16433097  0.64289118    -0.08200
C888        C  0.16258400  0.20735830  0.64956040    -0.05580
C889        C  0.17710911  0.26474342  0.65282085     0.00360
C890        C  0.22124995  0.27467183  0.61382400    -0.08110
C891        C  0.19910102  0.29287993  0.55644661     0.62270
H892        H  0.30785086  0.24411989  0.59142923     0.12960
H893        H  0.11951060  0.19765968  0.63862706     0.12970
C894        C  0.17920596  0.11188339  0.61429291     0.62500
F895        F  0.20347732  0.34978478  0.54617678    -0.22670
F896        F  0.14204817  0.27738593  0.54829247    -0.19990
F897        F  0.23070688  0.26515691  0.51805245    -0.19670
F898        F  0.15244591  0.07649607  0.65304345    -0.19720
F899        F  0.22089836  0.08420967  0.58394636    -0.20050
F900        F  0.13641538  0.12618421  0.57611354    -0.22720
C901        C  0.31728422  0.09529317  0.77939234    -0.05560
C902        C  0.29082320  0.10747319  0.72655474     0.00370
C903        C  0.23742014  0.08006897  0.72771704    -0.08200
C904        C  0.20067014  0.08987806  0.77591927    -0.05580
C905        C  0.22284114  0.11347491  0.82706534     0.00360
C906        C  0.28445327  0.09972002  0.83079634    -0.08110
C907        C  0.31383562  0.07060517  0.88074435     0.62270
H908        H  0.36367596  0.09018317  0.78145468     0.12960
H909        H  0.15925291  0.06917411  0.77772178     0.12970
C910        C  0.24076154  0.01976579  0.70784592     0.62500
F911        F  0.33348789  0.01832106  0.86454713    -0.22670
F912        F  0.27669760  0.06360917  0.92637444    -0.19990
F913        F  0.36307110  0.09965394  0.89622304    -0.19670
F914        F  0.28842511  0.99375368  0.73084314    -0.19720
F915        F  0.24760510  0.01622389  0.65042768    -0.20050
F916        F  0.19211125  0.99083851  0.72454790    -0.22720
C917        C  0.12514706  0.32217164  0.27382235    -0.05560
C918        C  0.13606025  0.30076982  0.32687608     0.00370
C919        C  0.09414077  0.25581374  0.33867592    -0.08200
C920        C  0.07629090  0.22067251  0.29185296    -0.05580
C921        C  0.09317099  0.22949722  0.23424436     0.00360
C922        C  0.10143069  0.29196732  0.22766883    -0.08110
C923        C  0.06353471  0.33914907  0.19900906     0.62270
H924        H  0.11882372  0.36691255  0.27661984     0.12960
H925        H  0.04092854  0.19290606  0.29932818     0.12970
C926        C  0.05459191  0.24895891  0.39092849     0.62500
F927        F  0.03081547  0.32820024  0.15329590    -0.22670
F928        F  0.09893176  0.38229288  0.18059207    -0.19990
F929        F  0.02611537  0.36196769  0.23874405    -0.19670
F930        F  0.00015902  0.26473876  0.37383260    -0.19720
F931        F  0.06623890  0.27871536  0.43909550    -0.20050
F932        F  0.05322661  0.19395239  0.40878738    -0.22720
C933        C  0.30128145  0.23530531  0.41009536    -0.05560
C934        C  0.26798083  0.18641201  0.39853193     0.00370
C935        C  0.21122455  0.18877573  0.41979193    -0.08200
C936        C  0.18477720  0.24243366  0.42174731    -0.05580
C937        C  0.21268113  0.29383380  0.40805727     0.00360
C938        C  0.27427369  0.28868535  0.41830388    -0.08110
C939        C  0.30841649  0.32986645  0.45389423     0.62270
H940        H  0.34786113  0.23282427  0.40955492     0.12960
H941        H  0.14932220  0.24573655  0.44930729     0.12970
C942        C  0.19163323  0.14779345  0.46563525     0.62500
F943        F  0.32464753  0.30500866  0.50460246    -0.22670
F944        F  0.27645583  0.37718361  0.46594342    -0.19990
F945        F  0.35935226  0.34385103  0.42772362    -0.19670
F946        F  0.21849525  0.16387074  0.51464029    -0.19720
F947        F  0.20536761  0.09238982  0.45705367    -0.20050
F948        F  0.13251497  0.15009694  0.47238463    -0.22720
C949        C  0.18068111  0.10173444  0.33858601    -0.05560
C950        C  0.24110606  0.10142233  0.32587836     0.00370
C951        C  0.24838565  0.08369503  0.26850120    -0.08200
C952        C  0.20700616  0.10122812  0.22641937    -0.05580
C953        C  0.15620346  0.13101315  0.24090946     0.00360
C954        C  0.13711853  0.11209303  0.29650174    -0.08110
C955        C  0.07652874  0.08973886  0.31134502     0.62270
H956        H  0.16533216  0.08342126  0.37707070     0.12960
H957        H  0.21335456  0.08888025  0.18355297     0.12970
C958        C  0.29995232  0.04932516  0.25178388     0.62500
F959        F  0.06098866  0.10607793  0.36475475    -0.22670
F960        F  0.07664255  0.03186192  0.31355869    -0.19990
F961        F  0.03366661  0.10574275  0.27410418    -0.19670
F962        F  0.29634151  0.03438913  0.19530311    -0.19720
F963        F  0.30092869  0.00133782  0.28547088    -0.20050
F964        F  0.35115839  0.07803921  0.25913092    -0.22720
C965        C  0.30267018  0.20054882  0.21139765    -0.05560
C966        C  0.33760283  0.24761284  0.20507385     0.00370
C967        C  0.38231380  0.24118851  0.24688880    -0.08200
C968        C  0.37305899  0.20371648  0.29744782    -0.05580
C969        C  0.31780238  0.17659120  0.30537973     0.00360
C970        C  0.27934808  0.19377373  0.26351139    -0.08110
C971        C  0.23308775  0.23115435  0.27928874     0.62270
H972        H  0.32400481  0.16194350  0.19992325     0.12960
H973        H  0.40680318  0.19621390  0.32824227     0.12970
C974        C  0.44098537  0.25738259  0.22931452     0.62500
F975        F  0.25649185  0.26718240  0.31321468    -0.22670
F976        F  0.19140772  0.20593424  0.30909992    -0.19990
F977        F  0.21095301  0.25998665  0.23502466    -0.19670
F978        F  0.45129723  0.31345034  0.23895379    -0.19720
F979        F  0.45023475  0.24604224  0.17250434    -0.20050
F980        F  0.47679487  0.22483036  0.26084236    -0.22720
C981        C  0.31617986  0.34413218  0.27392632    -0.05560
C982        C  0.28745044  0.34315652  0.22138957     0.00370
C983        C  0.24297701  0.38519454  0.21965867    -0.08200
C984        C  0.21385958  0.39922497  0.27173636    -0.05580
C985        C  0.22816417  0.37261092  0.32433188     0.00360
C986        C  0.29054751  0.36624870  0.32372361    -0.08110
C987        C  0.32906411  0.41475012  0.34005566     0.62270
H988        H  0.36149486  0.33654732  0.27445121     0.12960
H989        H  0.18050986  0.43095973  0.27114006     0.12970
C990        C  0.23887448  0.42924522  0.17322858     0.62500
F991        F  0.38618785  0.39907192  0.34670040    -0.22670
F992        F  0.31048529  0.43761360  0.39005912    -0.19990
F993        F  0.32853851  0.45372460  0.29574038    -0.19670
F994        F  0.18331857  0.43492853  0.15460409    -0.19720
F995        F  0.27051581  0.41820375  0.12658874    -0.20050
F996        F  0.25900243  0.47955736  0.19471123    -0.22720
C997        C  0.20420147  0.29755658  0.12760992    -0.05560
C998        C  0.26201504  0.27737291  0.13071391     0.00370
C999        C  0.26455836  0.22007909  0.10975186    -0.08200
C1000       C  0.21805795  0.18232218  0.12544180    -0.05580
C1001       C  0.16740517  0.20402603  0.15127335     0.00360
C1002       C  0.15691826  0.25821584  0.12866773    -0.08110
C1003       C  0.10274787  0.26609398  0.09337848     0.62270
H1004       H  0.19624490  0.34126898  0.11872854     0.12960
H1005       H  0.22103917  0.13878444  0.11364584     0.12970
C1006       C  0.31720825  0.19644138  0.07939720     0.62500
F1007       F  0.09595721  0.32166726  0.07599940    -0.22670
F1008       F  0.05507565  0.24525973  0.12118659    -0.19990
F1009       F  0.10402136  0.23407711  0.04618563    -0.19670
F1010       F  0.34257609  0.15254448  0.10873409    -0.19720
F1011       F  0.35832940  0.23768715  0.06957638    -0.20050
F1012       F  0.30042570  0.17468756  0.02835876    -0.22720
loop_ 
_geom_bond_atom_site_label_1 
_geom_bond_atom_site_label_2 
_geom_bond_distance 
_geom_bond_site_symmetry_2 
_ccdc_geom_bond_type 
C1           C59   1.593       .  S
C1          C966   1.634       .  S
C1          C982   1.608       .  S
C1          C998   1.638       .  S
C2          C116   1.571       .  S
C2          C934   1.578       .  S
C2          C950   1.650       .  S
C2          C969   1.585       .  S
C3          C185   1.583       .  S
C3          C921   1.719       .  S
C3          C953   1.634       .  S
C3         C1001   1.622       .  S
C4          C242   1.606       .  S
C4          C918   1.631       .  S
C4          C937   1.630       .  S
C4          C985   1.691       .  S
C5           C66   1.538       .  S
C5          C870   1.633       .  S
C5          C886   1.630       .  S
C5          C902   1.633       .  S
C6          C143   1.603       .  S
C6          C838   1.635       .  S
C6          C854   1.624       .  S
C6          C905   1.662       .  S
C7          C228   1.596       .  S
C7          C825   1.648       .  S
C7          C857   1.678       .  S
C7          C889   1.607       .  S
C8            C9   1.540       .  S
C8          C822   1.597       .  S
C8          C841   1.600       .  S
C8          C873   1.603       .  S
C9           N27   1.364       .  A
C9           C46   1.461       .  S
N10          N27   1.323       .  A
N10          N32   1.318       .  A
N10         Co47   2.129   1_556  S
C11          N36   1.357       .  A
C11          C49   1.491       .  S
C11          H56   1.074       .  S
H12          C53   1.081       .  S
C13          N37   1.335       .  A
C13          C17   1.454       .  S
C13          H42   1.069       .  S
Co14         N32   2.079       .  S
Co14         N22   2.152       .  S
Co14         N54   2.168       .  S
Co14         N30   2.070       .  S
Co14        Cl58   2.498   1_556  S
N15          C53   1.349       .  A
N15          N22   1.328       .  A
N15         Co16   2.161   1_556  S
Co16         N19   2.198       .  S
Co16         N36   2.176   1_554  S
Co16         N23   2.122       .  S
Co16        Cl58   2.462       .  S
C17         C190   1.571       .  S
C17          N55   1.383       .  A
N18          N25   1.321       .  A
N18          N48   1.343       .  A
N18         Co51   2.181       .  S
N19          N37   1.321       .  A
N19          N55   1.345       .  A
N20          C49   1.351       .  A
N20          N30   1.331       .  A
H21          C46   1.081       .  S
N22          N43   1.343       .  A
N23          N41   1.326       .  A
N23          N28   1.326       .  A
C24         C129   1.568       .  S
C24          N28   1.353       .  A
C24          C52   1.498       .  S
N25          C40   1.355       .  A
N25         Co47   2.138       .  S
C26          N54   1.351       .  A
C26          C29   1.486       .  S
C26          H60   1.070       .  S
C29         C123   1.575       .  S
C29          N50   1.359       .  A
N30          N36   1.320       .  A
N31          C57   1.350       .  A
N31          N33   1.321       .  A
N31         Co47   2.158       .  S
N32          C46   1.356       .  A
N33          N61   1.341       .  A
N33         Co51   2.120       .  S
H34          C57   1.072       .  S
H35          C52   1.081       .  S
N37         Co51   2.066       .  S
N38          N50   1.334       .  A
N38          N54   1.323       .  A
N38         Co47   2.120   1_556  S
C39         C119   1.572       .  S
C39          N43   1.366       .  A
C39          C53   1.486       .  S
C40          C59   1.489       .  S
C40          H44   1.077       .  S
N41          C52   1.369       .  A
N41         Co51   2.180       .  S
C45          C62   1.569       .  S
C45          N61   1.364       .  A
C45          C57   1.477       .  S
Co47        Cl58   2.465       .  S
N48          C59   1.374       .  A
C49         C131   1.564       .  S
Co51        Cl58   2.507       .  S
C62         C774   1.621       .  S
C62         C790   1.591       .  S
C62         C806   1.625       .  S
C63         C135   1.619       .  S
C63         C742   1.666       .  S
C63         C761   1.661       .  S
C63         C809   1.640       .  S
C64         C200   1.554       .  S
C64         C729   1.619       .  S
C64         C745   1.677       .  S
C64         C793   1.607       .  S
C65         C102   1.568       .  S
C65         C726   1.609       .  S
C65         C758   1.656       .  S
C65         C777   1.662       .  S
C66          N84   1.361       .  A
C66         C103   1.471       .  S
N67          N84   1.334       .  A
N67          N89   1.325       .  A
N67        Co104   2.140   1_545  S
C68          N93   1.346       .  A
C68         C106   1.479       .  S
C68         H113   1.078       .  S
H69         C110   1.064       .  S
C70          N94   1.336       .  A
C70          C74   1.466       .  S
C70          H99   1.075       .  S
Co71         N89   2.116   1_565  S
Co71         N79   2.123   1_565  S
Co71        N111   2.112       .  S
Co71         N87   2.071       .  S
Co71       Cl115   2.501       .  S
N72         C110   1.353       .  A
N72          N79   1.321       .  A
N72         Co73   2.190   1_545  S
Co73         N76   2.154   1_565  S
Co73         N93   2.135       .  S
Co73         N80   2.153       .  S
Co73       Cl115   2.456       .  S
C74         C188   1.559       .  S
C74         N112   1.361       .  A
N75          N82   1.317       .  A
N75         N105   1.343       .  A
N75        Co108   2.121   1_545  S
N76          N94   1.321       .  A
N76         N112   1.328       .  A
N77         C106   1.351       .  A
N77          N87   1.322       .  A
H78         C103   1.078       .  S
N79         N100   1.346       .  A
N80          N98   1.321       .  A
N80          N85   1.344       .  A
C81         C127   1.581       .  S
C81          N85   1.371       .  A
C81         C109   1.476       .  S
N82          C97   1.334       .  A
N82        Co104   2.117   1_545  S
C83         N111   1.350       .  A
C83          C86   1.475       .  S
C83         H117   1.076       .  S
C86         C124   1.580       .  S
C86         N107   1.368       .  A
N87          N93   1.320       .  A
N88         C114   1.346       .  A
N88          N90   1.325       .  A
N88        Co104   2.184       .  S
N89         C103   1.344       .  A
N90         N118   1.333       .  A
N90        Co108   2.080       .  S
H91         C114   1.073       .  S
H92         C109   1.071       .  S
N94        Co108   2.067   1_545  S
N95         N107   1.338       .  A
N95         N111   1.316       .  A
N95        Co104   2.145       .  S
C96         C121   1.602       .  S
C96         N100   1.366       .  A
C96         C110   1.496       .  S
C97         C116   1.473       .  S
C97         H101   1.064       .  S
N98         C109   1.347       .  A
N98        Co108   2.137       .  S
C102        N118   1.350       .  A
C102        C114   1.494       .  S
Co104      Cl115   2.450       .  S
N105        C116   1.368       .  A
C106        C133   1.522       .  S
Co108      Cl115   2.516       .  S
C119        C678   1.622       .  S
C119        C694   1.628       .  S
C119        C710   1.635       .  S
C120        C212   1.580       .  S
C120        C646   1.655       .  S
C120        C665   1.653       .  S
C120        C713   1.651       .  S
C121        C630   1.655       .  S
C121        C649   1.640       .  S
C121        C681   1.638       .  S
C122        C150   1.556       .  S
C122        C633   1.622       .  S
C122        C662   1.663       .  S
C122        C697   1.662       .  S
C123        C585   1.639       .  S
C123        C598   1.658       .  S
C123        C614   1.658       .  S
C124        C550   1.634       .  S
C124        C566   1.646       .  S
C124        C617   1.645       .  S
C125        C207   1.535       .  S
C125        C534   1.585       .  S
C125        C553   1.627       .  S
C125        C582   1.622       .  S
C126        C165   1.529       .  S
C126        C537   1.578       .  S
C126        C569   1.609       .  S
C126        C601   1.605       .  S
C127        C486   1.657       .  S
C127        C502   1.639       .  S
C127        C518   1.625       .  S
C128        C222   1.570       .  S
C128        C454   1.657       .  S
C128        C470   1.654       .  S
C128        C521   1.686       .  S
C129        C438   1.653       .  S
C129        C457   1.647       .  S
C129        C489   1.597       .  S
C130        C155   1.545       .  S
C130        C441   1.644       .  S
C130        C473   1.656       .  S
C130        C505   1.660       .  S
C131        C390   1.649       .  S
C131        C406   1.633       .  S
C131        C422   1.625       .  S
C132        C232   1.566       .  S
C132        C358   1.605       .  S
C132        C374   1.705       .  S
C132        C409   1.638       .  S
C133        C342   1.617       .  S
C133        C361   1.553       .  S
C133        C393   1.618       .  S
C134        C175   1.600       .  S
C134        C345   1.655       .  S
C134        C377   1.652       .  S
C134        C425   1.652       .  S
C135        N153   1.369       .  A
C135        C172   1.495       .  S
N136        N153   1.342       .  A
N136        N158   1.322       .  A
N136       Co173   2.172   1_455  S
C137        N162   1.367       .  A
C137        C175   1.493       .  S
C137        H182   1.081       .  S
H138        C179   1.080       .  S
C139        N163   1.356       .  A
C139        C143   1.481       .  S
C139        H168   1.061       .  S
Co140       N158   2.172   1_655  S
Co140       N148   2.073   1_654  S
Co140       N180   2.090       .  S
Co140       N156   2.189   1_554  S
Co140      Cl184   2.455       .  S
N141        C179   1.334       .  A
N141        N148   1.319       .  A
N141       Co142   2.097   1_465  S
Co142       N145   2.184   1_655  S
Co142       N162   2.177   1_545  S
Co142       N149   2.118       .  S
Co142      Cl184   2.536   1_546  S
C143        N181   1.380       .  A
N144        N151   1.317       .  A
N144        N174   1.328       .  A
N144       Co177   2.083   1_455  S
N145        N163   1.325       .  A
N145        N181   1.346       .  A
N146        C175   1.368       .  A
N146        N156   1.340       .  A
H147        C172   1.071       .  S
N148        N169   1.331       .  A
N149        N167   1.316       .  A
N149        N154   1.336       .  A
C150        N154   1.367       .  A
C150        C178   1.463       .  S
N151        C166   1.347       .  A
N151       Co173   2.140   1_445  S
C152        N180   1.349       .  A
C152        C155   1.463       .  S
C152        H186   1.080       .  S
C155        N176   1.366       .  A
N156        N162   1.330       .  A
N157        C183   1.354       .  A
N157        N159   1.327       .  A
N157       Co173   2.167   1_545  S
N158        C172   1.358       .  A
N159        N187   1.343       .  A
N159       Co177   2.142       .  S
H160        C183   1.079       .  S
H161        C178   1.065       .  S
N163       Co177   2.173   1_456  S
N164        N176   1.331       .  A
N164        N180   1.321       .  A
N164       Co173   2.141       .  S
C165        N169   1.351       .  A
C165        C179   1.477       .  S
C166        C185   1.499       .  S
C166        H170   1.070       .  S
N167        C178   1.332       .  A
N167       Co177   2.097   1_556  S
C171        C189   1.584       .  S
C171        N187   1.364       .  A
C171        C183   1.490       .  S
Co173      Cl184   2.507       .  S
N174        C185   1.355       .  A
Co177      Cl184   2.452   1_545  S
C188        C294   1.643       .  S
C188        C313   1.669       .  S
C188        C326   1.662       .  S
C189        C262   1.689       .  S
C189        C278   1.620       .  S
C189        C329   1.628       .  S
C190        C246   1.602       .  S
C190        C265   1.613       .  S
C190        C297   1.643       .  S
C191        C192   1.563       .  S
C191        C249   1.581       .  S
C191        C281   1.624       .  S
C191        C310   1.654       .  S
C192        N210   1.354       .  A
C192        C229   1.486       .  S
N193        N210   1.332       .  A
N193        N215   1.324       .  A
N193       Co230   2.095       .  S
C194        N219   1.336       .  A
C194        C232   1.461       .  S
C194        H239   1.068       .  S
H195        C236   1.081       .  S
C196        N220   1.336       .  A
C196        C200   1.481       .  S
C196        H225   1.058       .  S
Co197       N215   2.156       .  S
Co197       N205   2.098       .  S
Co197       N237   2.078       .  S
Co197       N213   2.160       .  S
Co197      Cl241   2.485       .  S
N198        C236   1.365       .  A
N198        N205   1.325       .  A
N198       Co199   2.191       .  S
Co199       N202   2.067   1_655  S
Co199       N219   2.081       .  S
Co199       N206   2.136   1_655  S
Co199      Cl241   2.499       .  S
C200        N238   1.354       .  A
N201        N208   1.318       .  A
N201        N231   1.343       .  A
N201       Co234   2.089       .  S
N202        N220   1.323       .  A
N202        N238   1.334       .  A
N203        C232   1.371       .  A
N203        N213   1.340       .  A
H204        C229   1.076       .  S
N205        N226   1.328       .  A
N206        N224   1.320       .  A
N206        N211   1.333       .  A
C207        N211   1.367       .  A
C207        C235   1.454       .  S
N208        C223   1.354       .  A
N208       Co230   2.224   1_455  S
C209        N237   1.342       .  A
C209        C212   1.463       .  S
C209        H243   1.067       .  S
C212        N233   1.375       .  A
N213        N219   1.318       .  A
N214        C240   1.353       .  A
N214        N216   1.314       .  A
N214       Co230   2.135   1_455  S
N215        C229   1.356       .  A
N216        N244   1.336       .  A
N216       Co234   2.142       .  S
H217        C240   1.065       .  S
H218        C235   1.071       .  S
N220       Co234   2.166       .  S
N221        N233   1.339       .  A
N221        N237   1.322       .  A
N221       Co230   2.206       .  S
C222        N226   1.351       .  A
C222        C236   1.498       .  S
C223        C242   1.504       .  S
C223        H227   1.073       .  S
N224        C235   1.335       .  A
N224       Co234   2.070       .  S
C228        N244   1.370       .  A
C228        C240   1.488       .  S
Co230      Cl241   2.454       .  S
N231        C242   1.357       .  A
Co234      Cl241   2.474   1_455  S
C245        H252   1.007       .  S
C245        C246   1.368       .  A
C245        C250   1.315       .  A
C246        C247   1.434       .  A
C247        C254   1.480       .  S
C247        C248   1.488       .  A
C248        H253   1.081       .  S
C248        C249   1.444       .  A
C249        C250   1.364       .  A
C250        C251   1.438       .  S
C251        F255   1.356       .  S
C251        F256   1.325       .  S
C251        F257   1.271       .  S
C254        F258   1.384       .  S
C254        F259   1.371       .  S
C254        F260   1.351       .  S
C261        H268   1.071       .  S
C261        C262   1.424       .  A
C261        C266   1.437       .  A
C262        C263   1.469       .  A
C263        C270   1.503       .  S
C263        C264   1.439       .  A
C264        H269   1.081       .  S
C264        C265   1.409       .  A
C265        C266   1.423       .  A
C266        C267   1.504       .  S
C267        F271   1.378       .  S
C267        F272   1.379       .  S
C267        F273   1.383       .  S
C270        F274   1.383       .  S
C270        F275   1.370       .  S
C270        F276   1.382       .  S
C277        H284   1.080       .  S
C277        C278   1.406       .  A
C277        C282   1.433       .  A
C278        C279   1.405       .  A
C279        C286   1.457       .  S
C279        C280   1.432       .  A
C280        H285   1.083       .  S
C280        C281   1.419       .  A
C281        C282   1.455       .  A
C282        C283   1.507       .  S
C283        F287   1.377       .  S
C283        F288   1.383       .  S
C283        F289   1.376       .  S
C286        F290   1.382       .  S
C286        F291   1.375       .  S
C286        F292   1.381       .  S
C293        H300   1.079       .  S
C293        C294   1.417       .  A
C293        C298   1.455       .  A
C294        C295   1.443       .  A
C295        C302   1.540       .  S
C295        C296   1.418       .  A
C296        H301   1.066       .  S
C296        C297   1.409       .  A
C297        C298   1.478       .  A
C298        C299   1.525       .  S
C299        F303   1.381       .  S
C299        F304   1.371       .  S
C299        F305   1.382       .  S
C302        F306   1.378       .  S
C302        F307   1.383       .  S
C302        F308   1.379       .  S
C309        H316   1.072       .  S
C309        C310   1.406       .  A
C309        C314   1.450       .  A
C310        C311   1.443       .  A
C311        C318   1.512       .  S
C311        C312   1.453       .  A
C312        H317   1.068       .  S
C312        C313   1.431       .  A
C313        C314   1.456       .  A
C314        C315   1.517       .  S
C315        F319   1.381       .  S
C315        F320   1.354       .  S
C315        F321   1.375       .  S
C318        F322   1.374       .  S
C318        F323   1.381       .  S
C318        F324   1.378       .  S
C325        H332   1.069       .  S
C325        C326   1.433       .  A
C325        C330   1.444       .  A
C326        C327   1.412       .  A
C327        C334   1.489       .  S
C327        C328   1.437       .  A
C328        H333   1.072       .  S
C328        C329   1.430       .  A
C329        C330   1.415       .  A
C330        C331   1.517       .  S
C331        F335   1.375       .  S
C331        F336   1.376       .  S
C331        F337   1.382       .  S
C334        F338   1.383       .  S
C334        F339   1.386       .  S
C334        F340   1.380       .  S
C341        H348   1.079       .  S
C341        C342   1.396       .  A
C341        C346   1.428       .  A
C342        C343   1.444       .  A
C343        C350   1.549       .  S
C343        C344   1.443       .  A
C344        H349   1.066       .  S
C344        C345   1.433       .  A
C345        C346   1.450       .  A
C346        C347   1.497       .  S
C347        F351   1.368       .  S
C347        F352   1.380       .  S
C347        F353   1.382       .  S
C350        F354   1.376       .  S
C350        F355   1.371       .  S
C350        F356   1.382       .  S
C357        H364   1.074       .  S
C357        C358   1.361       .  A
C357        C362   1.339       .  A
C358        C359   1.462       .  A
C359        C366   1.499       .  S
C359        C360   1.467       .  A
C360        H365   1.079       .  S
C360        C361   1.434       .  A
C361        C362   1.393       .  A
C362        C363   1.453       .  S
C363        F367   1.304       .  S
C363        F368   1.337       .  S
C363        F369   1.338       .  S
C366        F370   1.381       .  S
C366        F371   1.376       .  S
C366        F372   1.365       .  S
C373        H380   1.076       .  S
C373        C374   1.436       .  A
C373        C378   1.444       .  A
C374        C375   1.480       .  A
C375        C382   1.526       .  S
C375        C376   1.455       .  A
C376        H381   1.075       .  S
C376        C377   1.420       .  A
C377        C378   1.415       .  A
C378        C379   1.511       .  S
C379        F383   1.381       .  S
C379        F384   1.381       .  S
C379        F385   1.377       .  S
C382        F386   1.385       .  S
C382        F387   1.380       .  S
C382        F388   1.382       .  S
C389        H396   1.073       .  S
C389        C390   1.431       .  A
C389        C394   1.445       .  A
C390        C391   1.418       .  A
C391        C398   1.509       .  S
C391        C392   1.428       .  A
C392        H397   1.076       .  S
C392        C393   1.422       .  A
C393        C394   1.439       .  A
C394        C395   1.519       .  S
C395        F399   1.384       .  S
C395        F400   1.367       .  S
C395        F401   1.380       .  S
C398        F402   1.377       .  S
C398        F403   1.378       .  S
C398        F404   1.378       .  S
C405        H412   1.074       .  S
C405        C406   1.405       .  A
C405        C410   1.439       .  A
C406        C407   1.417       .  A
C407        C414   1.488       .  S
C407        C408   1.429       .  A
C408        H413   1.077       .  S
C408        C409   1.404       .  A
C409        C410   1.470       .  A
C410        C411   1.508       .  S
C411        F415   1.373       .  S
C411        F416   1.368       .  S
C411        F417   1.374       .  S
C414        F418   1.371       .  S
C414        F419   1.367       .  S
C414        F420   1.384       .  S
C421        H428   1.068       .  S
C421        C422   1.420       .  A
C421        C426   1.425       .  A
C422        C423   1.421       .  A
C423        C430   1.526       .  S
C423        C424   1.444       .  A
C424        H429   1.065       .  S
C424        C425   1.430       .  A
C425        C426   1.430       .  A
C426        C427   1.523       .  S
C427        F431   1.363       .  S
C427        F432   1.355       .  S
C427        F433   1.384       .  S
C430        F434   1.363       .  S
C430        F435   1.363       .  S
C430        F436   1.379       .  S
C437        H444   1.083       .  S
C437        C438   1.448       .  A
C437        C442   1.452       .  A
C438        C439   1.426       .  A
C439        C446   1.520       .  S
C439        C440   1.444       .  A
C440        H445   1.074       .  S
C440        C441   1.435       .  A
C441        C442   1.412       .  A
C442        C443   1.520       .  S
C443        F447   1.369       .  S
C443        F448   1.369       .  S
C443        F449   1.383       .  S
C446        F450   1.368       .  S
C446        F451   1.368       .  S
C446        F452   1.385       .  S
C453        H460   1.072       .  S
C453        C454   1.410       .  A
C453        C458   1.439       .  A
C454        C455   1.444       .  A
C455        C462   1.539       .  S
C455        C456   1.463       .  A
C456        H461   1.082       .  S
C456        C457   1.444       .  A
C457        C458   1.442       .  A
C458        C459   1.530       .  S
C459        F463   1.364       .  S
C459        F464   1.377       .  S
C459        F465   1.384       .  S
C462        F466   1.381       .  S
C462        F467   1.374       .  S
C462        F468   1.384       .  S
C469        H476   1.058       .  S
C469        C470   1.402       .  A
C469        C474   1.428       .  A
C470        C471   1.466       .  A
C471        C478   1.515       .  S
C471        C472   1.443       .  A
C472        H477   1.077       .  S
C472        C473   1.416       .  A
C473        C474   1.416       .  A
C474        C475   1.486       .  S
C475        F479   1.381       .  S
C475        F480   1.377       .  S
C475        F481   1.380       .  S
C478        F482   1.372       .  S
C478        F483   1.384       .  S
C478        F484   1.380       .  S
C485        H492   0.982       .  S
C485        C486   1.355       .  A
C485        C490   1.328       .  A
C486        C487   1.468       .  A
C487        C494   1.517       .  S
C487        C488   1.497       .  A
C488        H493   1.080       .  S
C488        C489   1.436       .  A
C489        C490   1.387       .  A
C490        C491   1.433       .  S
C491        F495   1.281       .  S
C491        F496   1.365       .  S
C491        F497   1.333       .  S
C494        F498   1.386       .  S
C494        F499   1.370       .  S
C494        F500   1.383       .  S
C501        H508   1.083       .  S
C501        C502   1.417       .  A
C501        C506   1.455       .  A
C502        C503   1.444       .  A
C503        C510   1.529       .  S
C503        C504   1.411       .  A
C504        H509   1.069       .  S
C504        C505   1.394       .  A
C505        C506   1.482       .  A
C506        C507   1.502       .  S
C507        F511   1.372       .  S
C507        F512   1.373       .  S
C507        F513   1.382       .  S
C510        F514   1.373       .  S
C510        F515   1.384       .  S
C510        F516   1.379       .  S
C517        H524   1.070       .  S
C517        C518   1.413       .  A
C517        C522   1.449       .  A
C518        C519   1.422       .  A
C519        C526   1.513       .  S
C519        C520   1.440       .  A
C520        H525   1.049       .  S
C520        C521   1.447       .  A
C521        C522   1.447       .  A
C522        C523   1.546       .  S
C523        F527   1.385       .  S
C523        F528   1.377       .  S
C523        F529   1.374       .  S
C526        F530   1.378       .  S
C526        F531   1.383       .  S
C526        F532   1.381       .  S
C533        H540   1.087       .  S
C533        C534   1.363       .  A
C533        C538   1.354       .  A
C534        C535   1.453       .  A
C535        C542   1.523       .  S
C535        C536   1.481       .  A
C536        H541   1.075       .  S
C536        C537   1.450       .  A
C537        C538   1.389       .  A
C538        C539   1.477       .  S
C539        F543   1.328       .  S
C539        F544   1.311       .  S
C539        F545   1.346       .  S
C542        F546   1.382       .  S
C542        F547   1.379       .  S
C542        F548   1.373   1_455  S
C549        H556   1.078       .  S
C549        C550   1.436       .  A
C549        C554   1.433       .  A
C550        C551   1.405       .  A
C551        C558   1.513       .  S
C551        C552   1.452       .  A
C552        H557   1.083       .  S
C552        C553   1.432       .  A
C553        C554   1.405       .  A
C554        C555   1.486       .  S
C555        F559   1.362       .  S
C555        F560   1.386       .  S
C555        F561   1.383       .  S
C558        F562   1.356       .  S
C558        F563   1.387       .  S
C558        F564   1.367       .  S
C565        H572   1.057       .  S
C565        C566   1.421       .  A
C565        C570   1.427       .  A
C566        C567   1.465       .  A
C567        C574   1.524       .  S
C567        C568   1.431       .  A
C568        H573   1.084       .  S
C568        C569   1.419       .  A
C569        C570   1.391       .  A
C570        C571   1.510       .  S
C571        F575   1.371       .  S
C571        F576   1.377       .  S
C571        F577   1.361       .  S
C574        F578   1.375       .  S
C574        F579   1.370       .  S
C574        F580   1.385       .  S
C581        H588   1.061       .  S
C581        C582   1.407       .  A
C581        C586   1.422       .  A
C582        C583   1.434       .  A
C583        C590   1.511       .  S
C583        C584   1.425       .  A
C584        H589   1.066       .  S
C584        C585   1.389       .  A
C585        C586   1.464       .  A
C586        C587   1.515       .  S
C587        F591   1.377       .  S
C587        F592   1.374       .  S
C587        F593   1.373       .  S
C590        F594   1.357       .  S
C590        F595   1.374       .  S
C590        F596   1.385       .  S
C597        H604   1.079       .  S
C597        C598   1.431       .  A
C597        C602   1.439       .  A
C598        C599   1.422       .  A
C599        C606   1.492       .  S
C599        C600   1.441       .  A
C600        H605   1.079       .  S
C600        C601   1.420       .  A
C601        C602   1.418       .  A
C602        C603   1.508       .  S
C603        F607   1.383       .  S
C603        F608   1.362   1_556  S
C603        F609   1.372       .  S
C606        F610   1.357   1_556  S
C606        F611   1.365   1_556  S
C606        F612   1.381   1_556  S
C613        H620   1.077       .  S
C613        C614   1.422       .  A
C613        C618   1.436       .  A
C614        C615   1.461       .  A
C615        C622   1.530       .  S
C615        C616   1.433       .  A
C616        H621   1.076       .  S
C616        C617   1.397       .  A
C617        C618   1.445       .  A
C618        C619   1.529       .  S
C619        F623   1.368       .  S
C619        F624   1.377       .  S
C619        F625   1.375       .  S
C622        F626   1.364       .  S
C622        F627   1.372       .  S
C622        F628   1.381       .  S
C629        H636   1.082       .  S
C629        C630   1.460       .  A
C629        C634   1.479       .  A
C630        C631   1.400       .  A
C631        C638   1.492       .  S
C631        C632   1.413       .  A
C632        H637   1.080       .  S
C632        C633   1.403       .  A
C633        C634   1.436       .  A
C634        C635   1.519       .  S
C635        F639   1.382       .  S
C635        F640   1.378       .  S
C635        F641   1.375       .  S
C638        F642   1.383       .  S
C638        F643   1.372       .  S
C638        F644   1.380   1_545  S
C645        H652   1.062       .  S
C645        C646   1.385       .  A
C645        C650   1.433       .  A
C646        C647   1.447       .  A
C647        C654   1.500       .  S
C647        C648   1.435       .  A
C648        H653   1.078       .  S
C648        C649   1.423       .  A
C649        C650   1.468       .  A
C650        C651   1.522       .  S
C651        F655   1.373       .  S
C651        F656   1.368       .  S
C651        F657   1.373       .  S
C654        F658   1.373       .  S
C654        F659   1.380       .  S
C654        F660   1.383       .  S
C661        H668   1.074       .  S
C661        C662   1.422       .  A
C661        C666   1.445       .  A
C662        C663   1.433       .  A
C663        C670   1.495       .  S
C663        C664   1.438       .  A
C664        H669   1.076       .  S
C664        C665   1.424       .  A
C665        C666   1.443       .  A
C666        C667   1.522       .  S
C667        F671   1.383       .  S
C667        F672   1.379       .  S
C667        F673   1.367       .  S
C670        F674   1.372       .  S
C670        F675   1.379       .  S
C670        F676   1.386       .  S
C677        H684   1.082       .  S
C677        C678   1.451       .  A
C677        C682   1.509       .  A
C678        C679   1.377       .  A
C679        C686   1.434       .  S
C679        C680   1.326       .  A
C680        H685   0.997       .  S
C680        C681   1.359       .  A
C681        C682   1.461       .  A
C682        C683   1.485       .  S
C683        F687   1.366       .  S
C683        F688   1.383       .  S
C683        F689   1.380       .  S
C686        F690   1.331       .  S
C686        F691   1.284       .  S
C686        F692   1.358       .  S
C693        H700   1.073       .  S
C693        C694   1.392       .  A
C693        C698   1.441       .  A
C694        C695   1.431       .  A
C695        C702   1.527       .  S
C695        C696   1.429       .  A
C696        H701   1.057       .  S
C696        C697   1.441       .  A
C697        C698   1.449       .  A
C698        C699   1.511       .  S
C699        F703   1.382       .  S
C699        F704   1.362       .  S
C699        F705   1.380   1_556  S
C702        F706   1.376       .  S
C702        F707   1.382       .  S
C702        F708   1.378       .  S
C709        H716   1.084       .  S
C709        C710   1.419       .  A
C709        C714   1.435       .  A
C710        C711   1.469       .  A
C711        C718   1.516       .  S
C711        C712   1.436       .  A
C712        H717   1.079       .  S
C712        C713   1.396       .  A
C713        C714   1.440       .  A
C714        C715   1.500       .  S
C715        F719   1.388       .  S
C715        F720   1.370       .  S
C715        F721   1.378       .  S
C718        F722   1.364       .  S
C718        F723   1.383       .  S
C718        F724   1.379       .  S
C725        H732   1.062       .  S
C725        C726   1.395       .  A
C725        C730   1.409       .  A
C726        C727   1.459       .  A
C727        C734   1.534       .  S
C727        C728   1.434       .  A
C728        H733   1.083       .  S
C728        C729   1.388       .  A
C729        C730   1.445       .  A
C730        C731   1.507       .  S
C731        F735   1.356       .  S
C731        F736   1.370       .  S
C731        F737   1.387       .  S
C734        F738   1.340       .  S
C734        F739   1.373       .  S
C734        F740   1.379       .  S
C741        H748   1.055       .  S
C741        C742   1.440       .  A
C741        C746   1.440       .  A
C742        C743   1.435       .  A
C743        C750   1.534       .  S
C743        C744   1.446       .  A
C744        H749   1.072       .  S
C744        C745   1.440       .  A
C745        C746   1.416       .  A
C746        C747   1.511       .  S
C747        F751   1.377   1_455  S
C747        F752   1.371       .  S
C747        F753   1.377       .  S
C750        F754   1.371       .  S
C750        F755   1.366       .  S
C750        F756   1.382       .  S
C757        H764   1.068       .  S
C757        C758   1.407       .  A
C757        C762   1.444       .  A
C758        C759   1.460       .  A
C759        C766   1.533       .  S
C759        C760   1.449       .  A
C760        H765   1.077       .  S
C760        C761   1.433       .  A
C761        C762   1.419       .  A
C762        C763   1.515       .  S
C763        F767   1.379       .  S
C763        F768   1.366       .  S
C763        F769   1.380       .  S
C766        F770   1.384       .  S
C766        F771   1.377       .  S
C766        F772   1.371       .  S
C773        H780   1.081       .  S
C773        C774   1.470       .  A
C773        C778   1.497       .  A
C774        C775   1.393       .  A
C775        C782   1.476       .  S
C775        C776   1.368       .  A
C776        H781   1.084       .  S
C776        C777   1.379       .  A
C777        C778   1.488       .  A
C778        C779   1.518       .  S
C779        F783   1.371       .  S
C779        F784   1.369       .  S
C779        F785   1.381       .  S
C782        F786   1.323       .  S
C782        F787   1.340       .  S
C782        F788   1.339       .  S
C789        H796   1.079       .  S
C789        C790   1.399       .  A
C789        C794   1.420       .  A
C790        C791   1.440       .  A
C791        C798   1.508       .  S
C791        C792   1.416       .  A
C792        H797   1.068       .  S
C792        C793   1.396       .  A
C793        C794   1.429       .  A
C794        C795   1.505       .  S
C795        F799   1.386       .  S
C795        F800   1.377       .  S
C795        F801   1.358       .  S
C798        F802   1.380       .  S
C798        F803   1.380       .  S
C798        F804   1.374       .  S
C805        H812   1.065       .  S
C805        C806   1.420       .  A
C805        C810   1.443       .  A
C806        C807   1.426       .  A
C807        C814   1.525       .  S
C807        C808   1.433       .  A
C808        H813   1.059       .  S
C808        C809   1.428       .  A
C809        C810   1.446       .  A
C810        C811   1.545       .  S
C811        F815   1.377       .  S
C811        F816   1.378       .  S
C811        F817   1.379       .  S
C814        F818   1.380       .  S
C814        F819   1.379       .  S
C814        F820   1.384       .  S
C821        H828   1.077       .  S
C821        C822   1.404       .  A
C821        C826   1.428       .  A
C822        C823   1.414       .  A
C823        C830   1.495       .  S
C823        C824   1.428       .  A
C824        H829   1.080       .  S
C824        C825   1.408       .  A
C825        C826   1.468       .  A
C826        C827   1.531       .  S
C827        F831   1.380       .  S
C827        F832   1.371       .  S
C827        F833   1.368       .  S
C830        F834   1.372       .  S
C830        F835   1.375       .  S
C830        F836   1.385       .  S
C837        H844   1.051       .  S
C837        C838   1.414       .  A
C837        C842   1.437       .  A
C838        C839   1.419       .  A
C839        C846   1.499       .  S
C839        C840   1.395       .  A
C840        H845   1.061       .  S
C840        C841   1.412       .  A
C841        C842   1.447       .  A
C842        C843   1.523       .  S
C843        F847   1.382       .  S
C843        F848   1.381       .  S
C843        F849   1.380       .  S
C846        F850   1.379   1_556  S
C846        F851   1.370   1_556  S
C846        F852   1.379   1_556  S
C853        H860   1.073       .  S
C853        C854   1.389       .  A
C853        C858   1.416       .  A
C854        C855   1.447       .  A
C855        C862   1.522       .  S
C855        C856   1.444       .  A
C856        H861   1.075       .  S
C856        C857   1.425       .  A
C857        C858   1.456       .  A
C858        C859   1.499       .  S
C859        F863   1.386       .  S
C859        F864   1.356       .  S
C859        F865   1.378   1_455  S
C862        F866   1.379       .  S
C862        F867   1.352       .  S
C862        F868   1.376       .  S
C869        H876   1.085       .  S
C869        C870   1.373       .  A
C869        C874   1.359       .  A
C870        C871   1.477       .  A
C871        C878   1.512       .  S
C871        C872   1.496       .  A
C872        H877   1.081       .  S
C872        C873   1.470       .  A
C873        C874   1.396       .  A
C874        C875   1.492       .  S
C875        F879   1.329       .  S
C875        F880   1.333       .  S
C875        F881   1.339       .  S
C878        F882   1.376       .  S
C878        F883   1.382       .  S
C878        F884   1.381       .  S
C885        H892   1.072       .  S
C885        C886   1.432       .  A
C885        C890   1.462       .  A
C886        C887   1.442       .  A
C887        C894   1.529       .  S
C887        C888   1.410       .  A
C888        H893   1.057       .  S
C888        C889   1.403       .  A
C889        C890   1.392       .  A
C890        C891   1.506       .  S
C891        F895   1.371       .  S
C891        F896   1.386       .  S
C891        F897   1.344       .  S
C894        F898   1.378       .  S
C894        F899   1.376       .  S
C894        F900   1.381       .  S
C901        H908   1.085       .  S
C901        C902   1.416       .  A
C901        C906   1.435       .  A
C902        C903   1.396       .  A
C903        C910   1.512       .  S
C903        C904   1.441       .  A
C904        H909   1.077       .  S
C904        C905   1.430       .  A
C905        C906   1.470       .  A
C906        C907   1.521       .  S
C907        F911   1.381       .  S
C907        F912   1.385       .  S
C907        F913   1.382       .  S
C910        F914   1.377   1_545  S
C910        F915   1.366       .  S
C910        F916   1.372   1_545  S
C917        H924   1.074       .  S
C917        C918   1.368       .  A
C917        C922   1.419       .  A
C918        C919   1.463       .  A
C919        C926   1.541       .  S
C919        C920   1.450       .  A
C920        H925   1.062       .  S
C920        C921   1.425       .  A
C921        C922   1.499       .  A
C922        C923   1.572       .  S
C923        F927   1.345       .  S
C923        F928   1.374       .  S
C923        F929   1.392       .  S
C926        F930   1.378       .  S
C926        F931   1.370       .  S
C926        F932   1.366       .  S
C933        H940   1.082       .  S
C933        C934   1.419       .  A
C933        C938   1.430       .  A
C934        C935   1.410       .  A
C935        C942   1.512       .  S
C935        C936   1.416       .  A
C936        H941   1.051       .  S
C936        C937   1.411       .  A
C937        C938   1.455       .  A
C938        C939   1.516       .  S
C939        F943   1.379       .  S
C939        F944   1.380       .  S
C939        F945   1.370       .  S
C942        F946   1.370       .  S
C942        F947   1.370       .  S
C942        F948   1.382       .  S
C949        H956   1.061       .  S
C949        C950   1.433       .  A
C949        C954   1.437       .  A
C950        C951   1.431       .  A
C951        C958   1.505       .  S
C951        C952   1.440       .  A
C952        H957   1.065       .  S
C952        C953   1.420       .  A
C953        C954   1.448       .  A
C954        C955   1.538       .  S
C955        F959   1.370       .  S
C955        F960   1.372       .  S
C955        F961   1.378       .  S
C958        F962   1.384       .  S
C958        F963   1.380       .  S
C958        F964   1.378       .  S
C965        H972   1.080       .  S
C965        C966   1.382       .  A
C965        C970   1.349       .  A
C966        C967   1.439       .  A
C967        C974   1.470       .  S
C967        C968   1.492       .  A
C968        H973   1.082       .  S
C968        C969   1.442       .  A
C969        C970   1.390       .  A
C970        C971   1.446       .  S
C971        F975   1.295       .  S
C971        F976   1.330       .  S
C971        F977   1.344       .  S
C974        F978   1.371       .  S
C974        F979   1.385       .  S
C974        F980   1.353       .  S
C981        H988   1.067       .  S
C981        C982   1.407       .  A
C981        C986   1.422       .  A
C982        C983   1.438       .  A
C983        C990   1.507       .  S
C983        C984   1.443       .  A
C984        H989   1.082       .  S
C984        C985   1.424       .  A
C985        C986   1.456       .  A
C986        C987   1.507       .  S
C987        F991   1.386       .  S
C987        F992   1.373       .  S
C987        F993   1.386       .  S
C990        F994   1.369       .  S
C990        F995   1.350       .  S
C990        F996   1.381       .  S
C997       H1004   1.072       .  S
C997        C998   1.428       .  A
C997       C1002   1.436       .  A
C998        C999   1.452       .  A
C999       C1006   1.527       .  S
C999       C1000   1.443       .  A
C1000      H1005   1.075       .  S
C1000      C1001   1.424       .  A
C1001      C1002   1.407       .  A
C1002      C1003   1.519       .  S
C1003      F1007   1.385       .  S
C1003      F1008   1.372       .  S
C1003      F1009   1.354       .  S
C1006      F1010   1.377       .  S
C1006      F1011   1.380       .  S
C1006      F1012   1.370       .  S
