geometry optimzed in LAMMPS
_audit_creation_date              2020-11-30 
_audit_creation_method            'lammps2cif' 
_symmetry_space_group_name_H-M    'P1' 
_symmetry_Int_Tables_number       1 
_symmetry_cell_setting            triclinic 
loop_ 
_symmetry_equiv_pos_as_xyz 
  x,y,z 
_cell_length_a                    42.416154399599336 
_cell_length_b                    42.61736230402183 
_cell_length_c                    30.050543507183082 
_cell_angle_alpha                 93.06159740365602 
_cell_angle_beta                  90.48900991895644 
_cell_angle_gamma                 90.57911736848173 
loop_ 
_atom_site_label 
_atom_site_type_symbol 
_atom_site_fract_x 
_atom_site_fract_y 
_atom_site_fract_z 
_atom_site_charge 
O1          O  0.41537059  0.49383360  0.41568929    -0.74360
O2          O  0.40745262  0.04167496  0.45120700    -0.53260
C3          C  0.39849128  0.01808291  0.42516558     0.79370
O4          O  0.48869928  0.42632247  0.57808524    -0.58960
O5          O  0.03659339  0.41975811  0.54480052    -0.51990
C6          C  0.01356859  0.41041929  0.56859219     0.71390
O7          O  0.41477893  0.50004080  0.58223679    -0.73520
O8          O  0.40819215  0.04660036  0.54909705    -0.54080
C9          C  0.39899409  0.02472579  0.57428483     0.77390
O10         O  0.49242195  0.42484613  0.41550674    -0.58660
O11         O  0.03903518  0.41808399  0.45117495    -0.51780
C12         C  0.01681796  0.40857583  0.42400834     0.73980
Zr13       Zr  0.46771186  0.47490298  0.43147667     2.54710
O14         O  0.43186485  0.43083229  0.41529261    -0.79230
O15         O  0.47337710  0.48025118  0.35161137    -0.92640
Zr16       Zr  0.46514321  0.47657690  0.56384296     2.64680
O17         O  0.42261892  0.43792773  0.56668362    -0.97600
O18         O  0.47007293  0.48051431  0.64472390    -0.79660
O19         O  0.44380563  0.49572138  0.49739038    -0.83020
O20         O  0.48731260  0.45432161  0.49760838    -2.17730
O21         O  0.08160206  0.01652511  0.41829977    -0.66410
O22         O  0.08928817  0.47137835  0.45459896    -0.50970
C23         C  0.09804780  0.49276065  0.42844971     0.72360
O24         O  0.00811251  0.09558322  0.57669248    -0.59310
O25         O  0.45987790  0.09998339  0.54371308    -0.51290
C26         C  0.48355395  0.11132619  0.56650518     0.74170
O27         O  0.07972307  0.02031826  0.58701962    -0.70710
O28         O  0.08783043  0.47263062  0.55139978    -0.49390
C29         C  0.09639230  0.49571671  0.57849967     0.75550
O30         O  0.00833682  0.09120223  0.42305370    -0.66040
O31         O  0.46092659  0.09744859  0.45647579    -0.53240
C32         C  0.48368050  0.10749521  0.43252952     0.73930
Zr33       Zr  0.03185098  0.04094821  0.43809477     2.77540
O34         O  0.07317566  0.08067321  0.45026937    -0.96790
O35         O  0.03186771  0.04119908  0.35712503    -0.77610
Zr36       Zr  0.02883396  0.04247349  0.56960091     2.70070
O37         O  0.06939296  0.08108717  0.59202510    -0.78860
O38         O  0.01591944  0.03952040  0.64798386    -0.97940
Zr39       Zr  0.45366262  0.05090192  0.49996960     2.21500
Zr40       Zr  0.04263883  0.46561699  0.50056674     2.11130
O41         O  0.05258883  0.02090388  0.50391803    -2.46630
O42         O  0.00865298  0.06254222  0.50359240    -0.78650
O43         O  0.02249968  0.48587443  0.43321858    -0.70840
O44         O  0.47410380  0.03159641  0.56779556    -2.31800
O45         O  0.47698262  0.02972936  0.43298165    -2.28010
O46         O  0.02001841  0.48744696  0.56811173    -0.72600
H47         H  0.48314609  0.43199506  0.49630661     0.79390
H48         H  0.46409136  0.04161109  0.59350495     0.80480
H49         H  0.07496037  0.02521982  0.50497681     0.82710
H50         H  0.46768659  0.03897829  0.40738883     0.80310
H51         H  0.45741883  0.49905356  0.65417857     0.43350
H52         H  0.02451587  0.01913766  0.65638198     0.42320
H53         H  0.08294533  0.08241503  0.56551038     0.42000
H54         H  0.08179271  0.07756850  0.48038207     0.39930
H55         H  0.03466425  0.01890172  0.34707267     0.43060
H56         H  0.47215102  0.50300977  0.34699090     0.37850
H57         H  0.43049234  0.42019611  0.44373188     0.43960
H58         H  0.42373381  0.42561794  0.53789116     0.40380
H59         H  0.09044212  0.07461922  0.42969559     0.45300
H60         H  0.45344849  0.47144919  0.33860013     0.44020
H61         H  0.42903071  0.42319691  0.58939148     0.44160
H62         H  0.02971753  0.05555219  0.66350016     0.44510
C63         C  0.47744184  0.22774381  0.34745631     0.04060
C64         C  0.48469685  0.25683168  0.36982661    -0.12080
C65         C  0.49360472  0.28279560  0.34554232     0.01570
C66         C  0.49488673  0.27904509  0.29886614    -0.10610
C67         C  0.48512107  0.25112647  0.27633101     0.04060
C68         C  0.47659315  0.22531301  0.30060266    -0.10030
H69         H  0.48456462  0.25873055  0.40589830     0.09650
H70         H  0.50294640  0.29834931  0.27962565     0.07180
H71         H  0.47139118  0.20288768  0.28324332     0.07030
C72         C  0.21760522  0.00760162  0.34086920     0.04060
C73         C  0.24720267  0.00890990  0.36244952    -0.12080
C74         C  0.27476507  0.01535942  0.33887078     0.01570
C75         C  0.27280472  0.01895940  0.29285527    -0.10610
C76         C  0.24352723  0.01744034  0.27088102     0.04060
C77         C  0.21597933  0.01269188  0.29505713    -0.10030
H78         H  0.24888164  0.00478897  0.39765667     0.09650
H79         H  0.29411120  0.02259257  0.27404145     0.07180
H80         H  0.19337585  0.01215411  0.27792994     0.07030
C81         C  0.22121274  0.01194523  0.66159102     0.04060
C82         C  0.24895212  0.02088894  0.63966144    -0.12080
C83         C  0.27792175  0.02420169  0.66315658     0.01570
C84         C  0.27842054  0.02179098  0.70954023    -0.10610
C85         C  0.25082747  0.01436006  0.73178223     0.04060
C86         C  0.22319212  0.00739989  0.70755698    -0.10030
H87         H  0.24845370  0.02469230  0.60435817     0.09650
H88         H  0.30033699  0.02484577  0.72814322     0.07180
H89         H  0.20273440  0.99932011  0.72522608     0.07030
C90         C  0.49119673  0.23612650  0.65100153     0.04060
C91         C  0.49763501  0.26347226  0.62880642    -0.12080
C92         C  0.50088916  0.29255252  0.65262480     0.01570
C93         C  0.49812505  0.29402583  0.69927108    -0.10610
C94         C  0.49227554  0.26658345  0.72165142     0.04060
C95         C  0.48866065  0.23775450  0.69745462    -0.10030
H96         H  0.49994634  0.26212943  0.59285391     0.09650
H97         H  0.50065736  0.31635002  0.71804296     0.07180
H98         H  0.48441581  0.21648612  0.71484800     0.07030
C99         C  0.25208341  0.49508495  0.14873628     0.04060
C100        C  0.25181796  0.49343272  0.19508322    -0.12080
C101        C  0.24216695  0.01912875  0.22217427     0.01570
C102        C  0.23205577  0.04644838  0.20281991    -0.10610
C103        C  0.23485115  0.04982917  0.15657128     0.04060
C104        C  0.24491068  0.02368022  0.12963188    -0.10030
H105        H  0.25804834  0.47171107  0.21003800     0.09650
H106        H  0.22329095  0.06562337  0.22422499     0.07180
H107        H  0.24691543  0.02525399  0.09393347     0.07030
O108        O  0.23200405  0.34603989  0.91809136    -0.74360
O109        O  0.28077897  0.35211294  0.94994350    -0.53260
C110        C  0.25814595  0.36122799  0.92485550     0.79370
O111        O  0.15896120  0.28125734  0.08826610    -0.58960
O112        O  0.14945853  0.23367944  0.05192402    -0.51990
C113        C  0.14158982  0.25674677  0.07890552     0.71390
O114        O  0.23427442  0.35454321  0.07550655    -0.73520
O115        O  0.28197514  0.35815848  0.04181009    -0.54080
C116        C  0.25902917  0.37004640  0.06467151     0.77390
O117        O  0.15524581  0.27452261  0.92082093    -0.58660
O118        O  0.14821293  0.22816217  0.95458653    -0.51780
C119        C  0.13910355  0.24995493  0.92930192     0.73980
Zr120      Zr  0.20650140  0.29745306  0.93798958     2.54710
O121        O  0.16826717  0.33965760  0.93847012    -0.79230
O122        O  0.20452382  0.28881997  0.85743291    -0.92640
Zr123      Zr  0.21135077  0.30167973  0.07030175     2.64680
O124        O  0.17927061  0.34560365  0.09702704    -0.97600
O125        O  0.22385724  0.29686994  0.14877840    -0.79660
O126        O  0.23085487  0.32034374  0.00290957    -0.83020
O127        O  0.18578264  0.27952262  0.00511627    -2.17730
O128        O  0.24413017  0.17832642  0.92294819    -0.66410
O129        O  0.19780322  0.17370597  0.96014699    -0.50970
C130        C  0.22001219  0.16245482  0.93514635     0.72360
O131        O  0.32634210  0.25343221  0.07401211    -0.59310
O132        O  0.33294126  0.30134682  0.04454705    -0.51290
C133        C  0.34275601  0.27785474  0.06612888     0.74170
O134        O  0.24672546  0.18725172  0.08608814    -0.70710
O135        O  0.19836667  0.18032716  0.05335570    -0.49390
C136        C  0.22081368  0.17174821  0.07920644     0.75550
O137        O  0.32088023  0.24989726  0.91827700    -0.66040
O138        O  0.32964007  0.29930703  0.94852829    -0.53240
C139        C  0.33788726  0.27491881  0.92436438     0.73930
Zr140      Zr  0.26810239  0.23050745  0.93278336     2.77540
O141        O  0.30835972  0.19334565  0.90757079    -0.96790
O142        O  0.25526632  0.23566167  0.85445539    -0.77610
Zr143      Zr  0.27278307  0.23517674  0.06522771     2.70070
O144        O  0.30914684  0.19192048  0.07263981    -0.78860
O145        O  0.27452807  0.24756614  0.14510896    -0.97940
Zr146      Zr  0.28549711  0.30818317  0.99883566     2.21500
Zr147      Zr  0.19430821  0.22386638  0.00350457     2.11130
O148        O  0.24916237  0.21159083  0.00043893    -2.46630
O149        O  0.29324666  0.25283669  0.99779098    -0.78650
O150        O  0.21379345  0.24229031  0.93505796    -0.70840
O151        O  0.26586655  0.29034424  0.06784421    -2.31800
O152        O  0.26077746  0.28546563  0.93262797    -2.28010
O153        O  0.21847071  0.24661461  0.07021410    -0.72600
H154        H  0.16361672  0.28441294  0.00582818     0.79390
H155        H  0.27694774  0.30049946  0.09298277     0.80480
H156        H  0.25277092  0.18934641  0.00162920     0.82710
H157        H  0.26983138  0.29371326  0.90621224     0.80310
H158        H  0.23400198  0.31719555  0.15823678     0.43350
H159        H  0.25318841  0.24206757  0.15541544     0.42320
H160        H  0.31674822  0.18716388  0.04197594     0.42000
H161        H  0.31406726  0.18198586  0.93429098     0.39930
H162        H  0.23801185  0.22020998  0.84808009     0.43060
H163        H  0.22627883  0.29302882  0.84759574     0.37850
H164        H  0.16469322  0.34498558  0.97049319     0.43960
H165        H  0.16521529  0.34942953  0.07153558     0.40380
H166        H  0.29766314  0.17752011  0.88722403     0.45300
H167        H  0.19190621  0.30647462  0.84707652     0.44020
H168        H  0.16545232  0.33750909  0.12027345     0.44160
H169        H  0.28846785  0.23144335  0.15698814     0.44510
C170        C  0.46121616  0.25905879  0.15605750     0.04060
C171        C  0.45904979  0.25495990  0.20211983    -0.12080
C172        C  0.48619957  0.24920693  0.22734629     0.01570
C173        C  0.01550069  0.24706213  0.20640428    -0.10610
C174        C  0.01791884  0.25084602  0.16058504     0.04060
C175        C  0.49077297  0.25683996  0.13557878    -0.10030
H176        H  0.43649366  0.25737511  0.21856300     0.09650
H177        H  0.03665159  0.24398298  0.22615522     0.07180
H178        H  0.49284013  0.26069580  0.10035303     0.07030
C179        C  0.25051755  0.48342390  0.84682291     0.04060
C180        C  0.25713362  0.48633127  0.80143054    -0.12080
C181        C  0.25006659  0.01390220  0.78055425     0.01570
C182        C  0.23895202  0.04001456  0.80567466    -0.10610
C183        C  0.23436045  0.03844742  0.85160084     0.04060
C184        C  0.23922526  0.00984319  0.87188882    -0.10030
H185        H  0.26630099  0.46652053  0.78163496     0.09650
H186        H  0.23431564  0.06169505  0.78959199     0.07180
H187        H  0.23443014  0.00836190  0.90705922     0.07030
C188        C  0.46150225  0.26571331  0.83921221     0.04060
C189        C  0.46345164  0.27142313  0.79349971    -0.12080
C190        C  0.49174666  0.26706960  0.77049835     0.01570
C191        C  0.01917075  0.25990153  0.79360830    -0.10610
C192        C  0.01825907  0.25540729  0.83933793     0.04060
C193        C  0.48921139  0.25718755  0.86170523    -0.10030
H194        H  0.44266877  0.27814726  0.77524269     0.09650
H195        H  0.04128716  0.25789932  0.77590240     0.07180
H196        H  0.48846649  0.25220308  0.89662944     0.07030
C197        C  0.22031346  0.12833334  0.92117775    -0.04400
C198        C  0.24876880  0.11175218  0.92623208    -0.01520
C199        C  0.25310148  0.08239769  0.90367561     0.03470
C200        C  0.22815119  0.06789840  0.87880958    -0.04400
C201        C  0.19849612  0.08273513  0.87775158    -0.01510
C202        C  0.19449001  0.11285156  0.89922794     0.03470
C203        C  0.27346340  0.12443835  0.95595375     0.38120
C204        C  0.17238852  0.06730650  0.85373263     0.38110
C205        C  0.16380424  0.12739497  0.89940679     0.36530
C206        C  0.28413220  0.06834450  0.90325341     0.36530
N207        N  0.13892782  0.13827559  0.90055270    -0.38290
N208        N  0.30908109  0.05761383  0.90228282    -0.38290
N209        N  0.15152192  0.05501793  0.83456021    -0.37730
N210        N  0.29302351  0.13405561  0.98021820    -0.37740
C211        C  0.26100816  0.39177744  0.90248102    -0.04400
C212        C  0.24594496  0.39499004  0.86077144    -0.01520
C213        C  0.24072857  0.42488619  0.84455670     0.03470
C214        C  0.25407981  0.45208434  0.86669315    -0.04400
C215        C  0.27192080  0.44867462  0.90617205    -0.01510
C216        C  0.27507571  0.41880332  0.92419267     0.03470
C217        C  0.23762792  0.36749356  0.83243154     0.38120
C218        C  0.28728003  0.47574295  0.92857186     0.38110
C219        C  0.29343222  0.41623511  0.96462648     0.36530
C220        C  0.22034645  0.42744496  0.80579929     0.36530
N221        N  0.30886960  0.41475307  0.99631934    -0.38290
N222        N  0.20412688  0.42941385  0.77492214    -0.38290
N223        N  0.29952899  0.99701417  0.94726504    -0.37730
N224        N  0.23154507  0.34622236  0.80826449    -0.37740
C225        C  0.37549824  0.27739862  0.08341458    -0.04400
C226        C  0.38498599  0.29756296  0.11983644    -0.01520
C227        C  0.41425631  0.29308210  0.14111307     0.03470
C228        C  0.43264238  0.26643129  0.12933040    -0.04400
C229        C  0.42321450  0.24641439  0.09247821    -0.01510
C230        C  0.39531554  0.25251734  0.06877743     0.03470
C231        C  0.36334781  0.32076729  0.13842288     0.38120
C232        C  0.44128891  0.21859266  0.08021729     0.38110
C233        C  0.38626467  0.23237992  0.03016512     0.36530
C234        C  0.42580248  0.31644742  0.17419734     0.36530
N235        N  0.37900205  0.21641957  0.99933496    -0.38290
N236        N  0.43521635  0.33562584  0.19972057    -0.38290
N237        N  0.45569700  0.19637252  0.07058665    -0.37730
N238        N  0.34580583  0.33860915  0.15431020    -0.37740
C239        C  0.10999267  0.25522222  0.10040814    -0.04400
C240        C  0.09075033  0.28228126  0.10465801    -0.01520
C241        C  0.06084090  0.28066523  0.12445011     0.03470
C242        C  0.04946840  0.25203683  0.13970396    -0.04400
C243        C  0.06848007  0.22507637  0.13609980    -0.01510
C244        C  0.09865708  0.22662947  0.11675825     0.03470
C245        C  0.10074260  0.31202319  0.08801310     0.38120
C246        C  0.05682858  0.19562877  0.15207243     0.38110
C247        C  0.11834679  0.19893731  0.11525457     0.36530
C248        C  0.04188679  0.30883231  0.13003203     0.36530
N249        N  0.13400342  0.17682604  0.11417542    -0.38290
N250        N  0.02674046  0.33119954  0.13451964    -0.38290
N251        N  0.04748717  0.17219390  0.16492049    -0.37730
N252        N  0.10715321  0.33645910  0.07551763    -0.37740
C253        C  0.36930983  0.27463481  0.90191381    -0.04400
C254        C  0.39634004  0.28833414  0.92328439    -0.01520
C255        C  0.42640273  0.28514116  0.90356142     0.03470
C256        C  0.43012107  0.26779492  0.86228368    -0.04400
C257        C  0.40308426  0.25329507  0.84176765    -0.01510
C258        C  0.37291863  0.25803132  0.86013097     0.03470
C259        C  0.39371608  0.30563993  0.96601048     0.38120
C260        C  0.40620644  0.23193943  0.80274774     0.38110
C261        C  0.34546690  0.24666485  0.83463172     0.36530
C262        C  0.45322788  0.29954080  0.92708282     0.36530
N263        N  0.32368849  0.23777053  0.81399941    -0.38290
N264        N  0.47372287  0.31088912  0.94807147    -0.38290
N265        N  0.40861459  0.21484129  0.77175271    -0.37730
N266        N  0.39228906  0.31986302  0.99981167    -0.37740
C267        C  0.10702381  0.24837858  0.90946607    -0.04400
C268        C  0.08595902  0.27299357  0.92040302    -0.01520
C269        C  0.05770686  0.27568205  0.89626024     0.03470
C270        C  0.04832290  0.25184657  0.86439824    -0.04400
C271        C  0.06928855  0.22699756  0.85345049    -0.01510
C272        C  0.09920464  0.22620417  0.87449111     0.03470
C273        C  0.09433964  0.29704429  0.95450481     0.38120
C274        C  0.06084930  0.20322222  0.81896269     0.38110
C275        C  0.12326932  0.20543677  0.85630881     0.36530
C276        C  0.04079839  0.30512943  0.89968050     0.36530
N277        N  0.14282664  0.18980642  0.84060019    -0.38290
N278        N  0.02840520  0.32921862  0.90126904    -0.38290
N279        N  0.05422850  0.18436378  0.79122368    -0.37730
N280        N  0.10096104  0.31658319  0.98119500    -0.37740
C281        C  0.22859708  0.08123894  0.13753648    -0.04400
C282        C  0.24127050  0.10903741  0.15908324    -0.01520
C283        C  0.23408476  0.13870161  0.14346115     0.03470
C284        C  0.21842592  0.14135045  0.10207979    -0.04400
C285        C  0.20526148  0.11382293  0.08059561    -0.01510
C286        C  0.20958870  0.08411384  0.09883341     0.03470
C287        C  0.26355257  0.10750832  0.19588661     0.38120
C288        C  0.18741689  0.11563002  0.03948699     0.38110
C289        C  0.19440986  0.05671932  0.07710659     0.36530
C290        C  0.24193391  0.16656316  0.17140108     0.36530
N291        N  0.18221592  0.03529358  0.05871993    -0.38290
N292        N  0.24780451  0.18830390  0.19480783    -0.38290
N293        N  0.17275869  0.11659204  0.00696018    -0.37730
N294        N  0.28139173  0.10645801  0.22511458    -0.37740
C295        C  0.25978218  0.40417470  0.07932739    -0.04400
C296        C  0.28698336  0.41895140  0.09886086    -0.01520
C297        C  0.28506910  0.44957337  0.11939500     0.03470
C298        C  0.25600544  0.46550100  0.12077840    -0.04400
C299        C  0.22936961  0.45140798  0.09929355    -0.01510
C300        C  0.23167111  0.42170541  0.07685774     0.03470
C301        C  0.31698523  0.40302254  0.09772698     0.38120
C302        C  0.19873756  0.46606831  0.10371471     0.38110
C303        C  0.20516777  0.40973283  0.04994700     0.36530
C304        C  0.31276645  0.46437908  0.14030153     0.36530
N305        N  0.18409165  0.40069424  0.02798482    -0.38290
N306        N  0.33485749  0.47617038  0.15705519    -0.38290
N307        N  0.17412300  0.47721899  0.10808471    -0.37730
N308        N  0.34128183  0.39095736  0.09583654    -0.37740
C309        C  0.50616858  0.32155761  0.62820274    -0.04400
C310        C  0.03332593  0.34059792  0.63674687    -0.01520
C311        C  0.03699710  0.36916416  0.61546865     0.03470
C312        C  0.01391340  0.37831109  0.58487860    -0.04400
C313        C  0.48840060  0.35784734  0.57330131    -0.01510
C314        C  0.48395009  0.33012548  0.59583398     0.03470
C315        C  0.05749811  0.33074439  0.66728147     0.38120
C316        C  0.46691482  0.36506753  0.53745836     0.38110
C317        C  0.45566648  0.31122966  0.58699768     0.36530
C318        C  0.06394283  0.38951255  0.62594457     0.36530
N319        N  0.43311407  0.29618927  0.58002298    -0.38290
N320        N  0.08547297  0.40575882  0.63416913    -0.38290
N321        N  0.44998900  0.37039869  0.50848012    -0.37730
N322        N  0.07674540  0.32276662  0.69162917    -0.37740
C323        C  0.48812091  0.20544532  0.62559343    -0.04400
C324        C  0.45892753  0.18918592  0.62342714    -0.01520
C325        C  0.45646019  0.15937433  0.60080216     0.03470
C326        C  0.48359637  0.14505817  0.58211129    -0.04400
C327        C  0.01200579  0.16275057  0.58078164    -0.01510
C328        C  0.01438086  0.19257887  0.60300240     0.03470
C329        C  0.43137772  0.20321609  0.64439046     0.38120
C330        C  0.03845819  0.15097176  0.55468446     0.38110
C331        C  0.04421723  0.20961388  0.60373557     0.36530
C332        C  0.42583373  0.14417448  0.59577805     0.36530
N333        N  0.06796138  0.22325429  0.60429907    -0.38290
N334        N  0.40109887  0.13278535  0.59068051    -0.38290
N335        N  0.05942779  0.14181738  0.53347975    -0.37730
N336        N  0.40942830  0.21435530  0.66122161    -0.37740
C337        C  0.50102857  0.31453464  0.36724848    -0.04400
C338        C  0.02281130  0.31906641  0.40317690    -0.01600
C339        C  0.02931691  0.34982029  0.42186033     0.03470
C340        C  0.01700955  0.37638292  0.40136013    -0.04400
C341        C  0.49894497  0.37131957  0.36173652    -0.01510
C342        C  0.48780363  0.34120816  0.34877507     0.03470
C343        C  0.03854063  0.29235912  0.42099271     0.38120
C344        C  0.49216897  0.39688993  0.33314971     0.38110
C345        C  0.46074995  0.33808969  0.31891425     0.36530
C346        C  0.04806009  0.35370903  0.46236055     0.36530
N347        N  0.43866785  0.33560930  0.29611620    -0.38290
N348        N  0.06302417  0.35652799  0.49474182    -0.38290
N349        N  0.48708342  0.41688338  0.30960894    -0.37730
N350        N  0.05111694  0.27103760  0.43519678    -0.37740
C351        C  0.47852255  0.19848054  0.37211767    -0.04400
C352        C  0.45180693  0.18635765  0.39293381    -0.01520
C353        C  0.45353137  0.15764773  0.41464067     0.03470
C354        C  0.48199632  0.13996935  0.41409218    -0.04400
C355        C  0.00928225  0.15393678  0.39516983    -0.01510
C356        C  0.00730430  0.18267827  0.37434366     0.03470
C357        C  0.42243817  0.20342839  0.39158622     0.38120
C358        C  0.04031577  0.14013962  0.39745392     0.38110
C359        C  0.03528174  0.19630320  0.35483941     0.36530
C360        C  0.42599382  0.14733594  0.43834258     0.36530
N361        N  0.05742928  0.20724268  0.33930856    -0.38290
N362        N  0.40401449  0.13959962  0.45771346    -0.38290
N363        N  0.06575718  0.13065438  0.39785153    -0.37730
N364        N  0.39901173  0.21705742  0.39039557    -0.37740
C365        C  0.12810396  0.49569989  0.60091862    -0.04400
C366        C  0.13201315  0.51161609  0.64316448    -0.01520
C367        C  0.16225114  0.01980723  0.65973919     0.03470
C368        C  0.18961793  0.00778233  0.63833201    -0.04400
C369        C  0.18572929  0.99004265  0.59716589    -0.01510
C370        C  0.15525255  0.48446811  0.57835306     0.03470
C371        C  0.10491413  0.51858278  0.67107229     0.38120
C372        C  0.21268793  0.97799590  0.57271476     0.38110
C373        C  0.15223328  0.46728767  0.53548875     0.36530
C374        C  0.16483954  0.04231901  0.69771983     0.36530
N375        N  0.15033163  0.45329337  0.50147867    -0.38290
N376        N  0.16678541  0.06030682  0.72788721    -0.38290
N377        N  0.23338659  0.96856722  0.55123197    -0.37730
N378        N  0.08365704  0.52381771  0.69406726    -0.37740
C379        C  0.30829930  0.02616100  0.63873536    -0.04400
C380        C  0.31692335  0.00085917  0.60927232    -0.01520
C381        C  0.34542783  0.00191888  0.58584325     0.03470
C382        C  0.36732542  0.02668127  0.59491035    -0.04400
C383        C  0.36023620  0.05035631  0.62784409    -0.01510
C384        C  0.33022588  0.05097456  0.64812145     0.03470
C385        C  0.29849977  0.47191827  0.60720578     0.38120
C386        C  0.38504034  0.07136609  0.64508457     0.38110
C387        C  0.32249708  0.07643527  0.67996473     0.36530
C388        C  0.35290307  0.47628263  0.55420444     0.36530
N389        N  0.31639998  0.09669258  0.70553025    -0.38290
N390        N  0.35863285  0.45539619  0.52959435    -0.38290
N391        N  0.40511528  0.08724705  0.66023158    -0.37730
N392        N  0.28465692  0.44836125  0.60659179    -0.37740
C393        C  0.18823632  0.00108701  0.36620846    -0.04400
C394        C  0.18093908  0.01965111  0.40518918    -0.01520
C395        C  0.15251613  0.51458500  0.42772062     0.03470
C396        C  0.13036253  0.49209070  0.41047545    -0.04400
C397        C  0.13779375  0.47283958  0.37258928    -0.01510
C398        C  0.16691828  0.97684637  0.35098786     0.03470
C399        C  0.20167026  0.04526384  0.42096511     0.38120
C400        C  0.11492105  0.44980401  0.35489918     0.38110
C401        C  0.17478922  0.95602415  0.31302061     0.36530
C402        C  0.14576813  0.53296377  0.46857347     0.36530
N403        N  0.18104295  0.93951347  0.28261313    -0.38290
N404        N  0.14060975  0.54742067  0.50135309    -0.38290
N405        N  0.09656711  0.43153360  0.34076297    -0.37730
N406        N  0.21817369  0.06568086  0.43362438    -0.37740
C407        C  0.36630909  0.01805439  0.40440367    -0.04400
C408        C  0.34740794  0.49028105  0.40260686    -0.01520
C409        C  0.31764383  0.48958417  0.38133982     0.03470
C410        C  0.30603702  0.01660342  0.36197055    -0.04400
C411        C  0.32472002  0.04431807  0.36349956    -0.01510
C412        C  0.35490160  0.04488060  0.38392252     0.03470
C413        C  0.35836403  0.46181020  0.42178100     0.38120
C414        C  0.31285409  0.07237979  0.34411179     0.38110
C415        C  0.37512457  0.07224256  0.38050195     0.36530
C416        C  0.29936446  0.46051096  0.37797805     0.36530
N417        N  0.39138203  0.09388105  0.37677826    -0.38290
N418        N  0.28479412  0.43736960  0.37525758    -0.38290
N419        N  0.30340351  0.09478720  0.32869128    -0.37730
N420        N  0.36631151  0.43844707  0.43601875    -0.37740
O421        O  0.41537057  0.99383358  0.41568931    -0.74360
O422        O  0.40745262  0.54167498  0.45120700    -0.53260
C423        C  0.39849129  0.51808294  0.42516555     0.79370
O424        O  0.48869932  0.92632245  0.57808520    -0.58960
O425        O  0.03659331  0.91975812  0.54480081    -0.51990
C426        C  0.01356848  0.91041930  0.56859241     0.71390
O427        O  0.41477895  0.00004075  0.58223672    -0.73520
O428        O  0.40819213  0.54660040  0.54909710    -0.54080
C429        C  0.39899408  0.52472585  0.57428491     0.77390
O430        O  0.49242195  0.92484611  0.41550669    -0.58660
O431        O  0.03903525  0.91808398  0.45117526    -0.51780
C432        C  0.01681809  0.90857582  0.42400855     0.73980
Zr433      Zr  0.46771185  0.97490296  0.43147665     2.54710
O434        O  0.43186484  0.93083226  0.41529264    -0.79230
O435        O  0.47337704  0.98025115  0.35161134    -0.92640
Zr436      Zr  0.46514325  0.97657689  0.56384294     2.64680
O437        O  0.42261899  0.93792769  0.56668378    -0.97600
O438        O  0.47007302  0.98051437  0.64472387    -0.79660
O439        O  0.44380565  0.99572136  0.49739036    -0.83020
O440        O  0.48731261  0.95432159  0.49760835    -2.17730
O441        O  0.08160203  0.51652513  0.41829950    -0.66410
O442        O  0.08928815  0.97137833  0.45459925    -0.50970
C443        C  0.09804780  0.99276062  0.42844998     0.72360
O444        O  0.00811262  0.59558320  0.57669244    -0.59310
O445        O  0.45987789  0.59998341  0.54371313    -0.51290
C446        C  0.48355393  0.61132619  0.56650525     0.74170
O447        O  0.07972313  0.52031814  0.58701948    -0.70710
O448        O  0.08783035  0.97263067  0.55140013    -0.49390
C449        C  0.09639223  0.99571683  0.57849991     0.75550
O450        O  0.00833693  0.59120246  0.42305382    -0.66040
O451        O  0.46092659  0.59744861  0.45647585    -0.53240
C452        C  0.48368050  0.60749523  0.43252957     0.73930
Zr453      Zr  0.03185095  0.54094824  0.43809450     2.77540
O454        O  0.07317590  0.58067300  0.45026856    -0.96790
O455        O  0.03186731  0.54119901  0.35712475    -0.77610
Zr456      Zr  0.02883409  0.54247350  0.56960068     2.70070
O457        O  0.06939330  0.58108712  0.59202419    -0.78860
O458        O  0.01591978  0.53952063  0.64798373    -0.97940
Zr459      Zr  0.45366261  0.55090193  0.49996964     2.21500
Zr460      Zr  0.04263881  0.96561699  0.50056702     2.11130
O461        O  0.05258885  0.52090388  0.50391773    -2.46630
O462        O  0.00865304  0.56254223  0.50359222    -0.78650
O463        O  0.02249971  0.98587440  0.43321882    -0.70840
O464        O  0.47410377  0.53159642  0.56779560    -2.31800
O465        O  0.47698262  0.52972938  0.43298170    -2.28010
O466        O  0.02001829  0.98744696  0.56811195    -0.72600
H467        H  0.48314611  0.93199504  0.49630659     0.79390
H468        H  0.46409134  0.54161110  0.59350499     0.80480
H469        H  0.07496039  0.52521979  0.50497652     0.82710
H470        H  0.46768660  0.53897832  0.40738888     0.80310
H471        H  0.45741883  0.99905356  0.65417854     0.43350
H472        H  0.02451588  0.51913774  0.65638178     0.42320
H473        H  0.08294555  0.58241482  0.56550932     0.42000
H474        H  0.08179354  0.57756788  0.48038081     0.39930
H475        H  0.03466439  0.51890172  0.34707243     0.43060
H476        H  0.47215091  0.00300973  0.34699086     0.37850
H477        H  0.43049234  0.92019609  0.44373191     0.43960
H478        H  0.42373392  0.92561782  0.53789139     0.40380
H479        H  0.09044194  0.57461925  0.42969392     0.45300
H480        H  0.45344845  0.97144911  0.33860012     0.44020
H481        H  0.42903078  0.92319696  0.58939175     0.44160
H482        H  0.02971820  0.55555219  0.66349992     0.44510
C483        C  0.47744183  0.72774381  0.34745631     0.04060
C484        C  0.48469685  0.75683168  0.36982659    -0.12080
C485        C  0.49360472  0.78279559  0.34554230     0.01570
C486        C  0.49488671  0.77904507  0.29886612    -0.10610
C487        C  0.48512106  0.75112645  0.27633100     0.04060
C488        C  0.47659314  0.72531299  0.30060265    -0.10030
H489        H  0.48456462  0.75873055  0.40589829     0.09650
H490        H  0.50294639  0.79834929  0.27962562     0.07180
H491        H  0.47139117  0.70288766  0.28324332     0.07030
C492        C  0.21760527  0.50760164  0.34086904     0.04060
C493        C  0.24720272  0.50890993  0.36244937    -0.12080
C494        C  0.27476512  0.51535944  0.33887063     0.01570
C495        C  0.27280478  0.51895940  0.29285512    -0.10610
C496        C  0.24352729  0.51744033  0.27088086     0.04060
C497        C  0.21597939  0.51269188  0.29505696    -0.10030
H498        H  0.24888167  0.50478901  0.39765652     0.09650
H499        H  0.29411126  0.52259257  0.27404130     0.07180
H500        H  0.19337591  0.51215410  0.27792976     0.07030
C501        C  0.22121272  0.51194527  0.66159099     0.04060
C502        C  0.24895209  0.52088908  0.63966148    -0.12080
C503        C  0.27792171  0.52420183  0.66315663     0.01570
C504        C  0.27842049  0.52179108  0.70954028    -0.10610
C505        C  0.25082742  0.51436008  0.73178224     0.04060
C506        C  0.22319210  0.50739985  0.70755693    -0.10030
H507        H  0.24845368  0.52469252  0.60435823     0.09650
H508        H  0.30033692  0.52484587  0.72814330     0.07180
H509        H  0.20273442  0.49931997  0.72522600     0.07030
C510        C  0.49119673  0.73612651  0.65100158     0.04060
C511        C  0.49763501  0.76347226  0.62880645    -0.12080
C512        C  0.50088917  0.79255253  0.65262482     0.01570
C513        C  0.49812504  0.79402586  0.69927110    -0.10610
C514        C  0.49227552  0.76658349  0.72165146     0.04060
C515        C  0.48866064  0.73775453  0.69745467    -0.10030
H516        H  0.49994635  0.76212943  0.59285394     0.09650
H517        H  0.50065736  0.81635005  0.71804296     0.07180
H518        H  0.48441579  0.71648616  0.71484806     0.07030
C519        C  0.25208341  0.99508496  0.14873645     0.04060
C520        C  0.25181792  0.99343273  0.19508339    -0.12080
C521        C  0.24216700  0.51912875  0.22217411     0.01570
C522        C  0.23205580  0.54644837  0.20281977    -0.10610
C523        C  0.23485115  0.54982916  0.15657113     0.04060
C524        C  0.24491066  0.52368021  0.12963172    -0.10030
H525        H  0.25804829  0.97171107  0.21003817     0.09650
H526        H  0.22329099  0.56562336  0.22422486     0.07180
H527        H  0.24691539  0.52525399  0.09393331     0.07030
O528        O  0.23200407  0.84603993  0.91809139    -0.74360
O529        O  0.28077898  0.85211297  0.94994356    -0.53260
C530        C  0.25814597  0.86122802  0.92485554     0.79370
O531        O  0.15896118  0.78125737  0.08826615    -0.58960
O532        O  0.14945851  0.73367947  0.05192405    -0.51990
C533        C  0.14158980  0.75674680  0.07890556     0.71390
O534        O  0.23427441  0.85454323  0.07550664    -0.73520
O535        O  0.28197513  0.85815851  0.04181017    -0.54080
C536        C  0.25902916  0.87004642  0.06467161     0.77390
O537        O  0.15524579  0.77452267  0.92082099    -0.58660
O538        O  0.14821292  0.72816222  0.95458656    -0.51780
C539        C  0.13910354  0.74995499  0.92930197     0.73980
Zr540      Zr  0.20650138  0.79745312  0.93798964     2.54710
O541        O  0.16826718  0.83965769  0.93847027    -0.79230
O542        O  0.20452375  0.78882008  0.85743297    -0.92640
Zr543      Zr  0.21135075  0.80167975  0.07030181     2.64680
O544        O  0.17927058  0.84560368  0.09702708    -0.97600
O545        O  0.22385721  0.79686996  0.14877846    -0.79660
O546        O  0.23085485  0.82034378  0.00290964    -0.83020
O547        O  0.18578262  0.77952266  0.00511632    -2.17730
O548        O  0.24413015  0.67832645  0.92294821    -0.66410
O549        O  0.19780320  0.67370601  0.96014701    -0.50970
C550        C  0.22001217  0.66245485  0.93514637     0.72360
O551        O  0.32634209  0.75343222  0.07401212    -0.59310
O552        O  0.33294124  0.80134684  0.04454710    -0.51290
C553        C  0.34275600  0.77785475  0.06612891     0.74170
O554        O  0.24672543  0.68725174  0.08608813    -0.70710
O555        O  0.19836664  0.68032719  0.05335571    -0.49390
C556        C  0.22081365  0.67174823  0.07920643     0.75550
O557        O  0.32088021  0.74989729  0.91827705    -0.66040
O558        O  0.32964005  0.79930706  0.94852834    -0.53240
C559        C  0.33788724  0.77491884  0.92436443     0.73930
Zr560      Zr  0.26810237  0.73050749  0.93278338     2.77540
O561        O  0.30835967  0.69334571  0.90757072    -0.96790
O562        O  0.25526627  0.73566175  0.85445543    -0.77610
Zr563      Zr  0.27278305  0.73517676  0.06522774     2.70070
O564        O  0.30914681  0.69192050  0.07263988    -0.78860
O565        O  0.27452804  0.74756616  0.14510899    -0.97940
Zr566      Zr  0.28549709  0.80818320  0.99883572     2.21500
Zr567      Zr  0.19430819  0.72386642  0.00350459     2.11130
O568        O  0.24916235  0.71159087  0.00043895    -2.46630
O569        O  0.29324664  0.75283671  0.99779101    -0.78650
O570        O  0.21379343  0.74229036  0.93505799    -0.70840
O571        O  0.26586654  0.79034426  0.06784426    -2.31800
O572        O  0.26077744  0.78546568  0.93262802    -2.28010
O573        O  0.21847069  0.74661464  0.07021413    -0.72600
H574        H  0.16361670  0.78441299  0.00582823     0.79390
H575        H  0.27694772  0.80049948  0.09298282     0.80480
H576        H  0.25277090  0.68934644  0.00162922     0.82710
H577        H  0.26983136  0.79371330  0.90621230     0.80310
H578        H  0.23400196  0.81719556  0.15823684     0.43350
H579        H  0.25318838  0.74206756  0.15541547     0.42320
H580        H  0.31674818  0.68716388  0.04197600     0.42000
H581        H  0.31406722  0.68198588  0.93429087     0.39930
H582        H  0.23801182  0.72021004  0.84808011     0.43060
H583        H  0.22627876  0.79302884  0.84759579     0.37850
H584        H  0.16469325  0.84498564  0.97049335     0.43960
H585        H  0.16521526  0.84942955  0.07153562     0.40380
H586        H  0.29766309  0.67752019  0.88722393     0.45300
H587        H  0.19190620  0.80647478  0.84707661     0.44020
H588        H  0.16545229  0.83750912  0.12027350     0.44160
H589        H  0.28846783  0.73144338  0.15698817     0.44510
C590        C  0.46121615  0.75905877  0.15605750     0.04060
C591        C  0.45904977  0.75495988  0.20211982    -0.12080
C592        C  0.48619955  0.74920690  0.22734628     0.01570
C593        C  0.01550067  0.74706217  0.20640435    -0.10610
C594        C  0.01791883  0.75084606  0.16058512     0.04060
C595        C  0.49077295  0.75683994  0.13557878    -0.10030
H596        H  0.43649364  0.75737509  0.21856299     0.09650
H597        H  0.03665157  0.74398303  0.22615530     0.07180
H598        H  0.49284011  0.76069578  0.10035303     0.07030
C599        C  0.25051764  0.98342390  0.84682290     0.04060
C600        C  0.25713372  0.98633127  0.80143054    -0.12080
C601        C  0.25006652  0.51390220  0.78055426     0.01570
C602        C  0.23895197  0.54001457  0.80567467    -0.10610
C603        C  0.23436040  0.53844744  0.85160086     0.04060
C604        C  0.23922520  0.50984320  0.87188884    -0.10030
H605        H  0.26630111  0.96652054  0.78163496     0.09650
H606        H  0.23431560  0.56169507  0.78959201     0.07180
H607        H  0.23443009  0.50836191  0.90705924     0.07030
C608        C  0.46150223  0.76571336  0.83921224     0.04060
C609        C  0.46345162  0.77142318  0.79349974    -0.12080
C610        C  0.49174664  0.76706965  0.77049839     0.01570
C611        C  0.01917072  0.75990151  0.79360841    -0.10610
C612        C  0.01825904  0.75540728  0.83933804     0.04060
C613        C  0.48921136  0.75718760  0.86170527    -0.10030
H614        H  0.44266875  0.77814730  0.77524271     0.09650
H615        H  0.04128713  0.75789929  0.77590251     0.07180
H616        H  0.48846646  0.75220313  0.89662948     0.07030
C617        C  0.22031344  0.62833337  0.92117777    -0.04400
C618        C  0.24876879  0.61175221  0.92623207    -0.01520
C619        C  0.25310145  0.58239772  0.90367560     0.03470
C620        C  0.22815115  0.56789842  0.87880961    -0.04400
C621        C  0.19849608  0.58273514  0.87775165    -0.01510
C622        C  0.19448998  0.61285158  0.89922799     0.03470
C623        C  0.27346340  0.62443839  0.95595370     0.38120
C624        C  0.17238846  0.56730649  0.85373276     0.38110
C625        C  0.16380421  0.62739498  0.89940687     0.36530
C626        C  0.28413217  0.56834452  0.90325338     0.36530
N627        N  0.13892779  0.63827560  0.90055281    -0.38290
N628        N  0.30908105  0.55761384  0.90228279    -0.38290
N629        N  0.15152184  0.55501792  0.83456040    -0.37730
N630        N  0.29302353  0.63405564  0.98021814    -0.37740
C631        C  0.26100822  0.89177745  0.90248105    -0.04400
C632        C  0.24594505  0.89499004  0.86077144    -0.01520
C633        C  0.24072868  0.92488618  0.84455668     0.03470
C634        C  0.25407990  0.95208434  0.86669314    -0.04400
C635        C  0.27192086  0.94867463  0.90617206    -0.01510
C636        C  0.27507575  0.91880334  0.92419270     0.03470
C637        C  0.23762804  0.86749355  0.83243154     0.38120
C638        C  0.28728009  0.97574296  0.92857188     0.38110
C639        C  0.29343222  0.91623513  0.96462656     0.36530
C640        C  0.22034659  0.92744495  0.80579923     0.36530
N641        N  0.30886957  0.91475310  0.99631945    -0.38290
N642        N  0.20412703  0.92941382  0.77492205    -0.38290
N643        N  0.29952894  0.49701416  0.94726501    -0.37730
N644        N  0.23154521  0.84622235  0.80826449    -0.37740
C645        C  0.37549823  0.77739862  0.08341459    -0.04400
C646        C  0.38498599  0.79756296  0.11983646    -0.01520
C647        C  0.41425631  0.79308209  0.14111307     0.03470
C648        C  0.43264237  0.76643129  0.12933040    -0.04400
C649        C  0.42321448  0.74641439  0.09247820    -0.01510
C650        C  0.39531552  0.75251734  0.06877744     0.03470
C651        C  0.36334780  0.82076729  0.13842291     0.38120
C652        C  0.44128889  0.71859266  0.08021728     0.38110
C653        C  0.38626464  0.73237993  0.03016512     0.36530
C654        C  0.42580248  0.81644741  0.17419734     0.36530
N655        N  0.37900202  0.71641959  0.99933496    -0.38290
N656        N  0.43521636  0.83562583  0.19972057    -0.38290
N657        N  0.45569697  0.69637252  0.07058662    -0.37730
N658        N  0.34580583  0.83860915  0.15431024    -0.37740
C659        C  0.10999265  0.75522225  0.10040817    -0.04400
C660        C  0.09075030  0.78228129  0.10465804    -0.01520
C661        C  0.06084088  0.78066527  0.12445015     0.03470
C662        C  0.04946838  0.75203687  0.13970403    -0.04400
C663        C  0.06848006  0.72507641  0.13609987    -0.01510
C664        C  0.09865706  0.72662951  0.11675831     0.03470
C665        C  0.10074257  0.81202321  0.08801310     0.38120
C666        C  0.05682857  0.69562881  0.15207252     0.38110
C667        C  0.11834678  0.69893735  0.11525463     0.36530
C668        C  0.04188677  0.80883235  0.13003207     0.36530
N669        N  0.13400340  0.67682608  0.11417547    -0.38290
N670        N  0.02674044  0.83119958  0.13451968    -0.38290
N671        N  0.04748716  0.67219395  0.16492059    -0.37730
N672        N  0.10715318  0.83645911  0.07551761    -0.37740
C673        C  0.36930981  0.77463484  0.90191386    -0.04400
C674        C  0.39634002  0.78833419  0.92328442    -0.01520
C675        C  0.42640271  0.78514122  0.90356144     0.03470
C676        C  0.43012105  0.76779498  0.86228371    -0.04400
C677        C  0.40308424  0.75329511  0.84176769    -0.01510
C678        C  0.37291861  0.75803135  0.86013102     0.03470
C679        C  0.39371606  0.80563997  0.96601052     0.38120
C680        C  0.40620642  0.73193946  0.80274778     0.38110
C681        C  0.34546689  0.74666487  0.83463178     0.36530
C682        C  0.45322785  0.79954088  0.92708282     0.36530
N683        N  0.32368848  0.73777054  0.81399947    -0.38290
N684        N  0.47372284  0.81088923  0.94807145    -0.38290
N685        N  0.40861457  0.71484132  0.77175277    -0.37730
N686        N  0.39228904  0.81986306  0.99981171    -0.37740
C687        C  0.10702379  0.74837864  0.90946613    -0.04400
C688        C  0.08595901  0.77299364  0.92040305    -0.01520
C689        C  0.05770684  0.77568208  0.89626030     0.03470
C690        C  0.04832287  0.75184658  0.86439834    -0.04400
C691        C  0.06928852  0.72699756  0.85345061    -0.01510
C692        C  0.09920461  0.72620419  0.87449121     0.03470
C693        C  0.09433964  0.79704439  0.95450480     0.38120
C694        C  0.06084926  0.70322220  0.81896286     0.38110
C695        C  0.12326929  0.70543679  0.85630892     0.36530
C696        C  0.04079835  0.80512945  0.89968054     0.36530
N697        N  0.14282661  0.68980643  0.84060031    -0.38290
N698        N  0.02840515  0.82921864  0.90126906    -0.38290
N699        N  0.05422845  0.68436373  0.79122389    -0.37730
N700        N  0.10096105  0.81658331  0.98119495    -0.37740
C701        C  0.22859707  0.58123893  0.13753636    -0.04400
C702        C  0.24127051  0.60903739  0.15908313    -0.01520
C703        C  0.23408476  0.63870160  0.14346109     0.03470
C704        C  0.21842589  0.64135046  0.10207975    -0.04400
C705        C  0.20526143  0.61382296  0.08059556    -0.01510
C706        C  0.20958867  0.58411386  0.09883333     0.03470
C707        C  0.26355263  0.60750828  0.19588645     0.38120
C708        C  0.18741680  0.61563007  0.03948698     0.38110
C709        C  0.19440981  0.55671935  0.07710651     0.36530
C710        C  0.24193393  0.66656314  0.17140103     0.36530
N711        N  0.18221585  0.53529362  0.05871985    -0.38290
N712        N  0.24780454  0.68830387  0.19480780    -0.38290
N713        N  0.17275858  0.61659211  0.00696020    -0.37730
N714        N  0.28139181  0.60645796  0.22511438    -0.37740
C715        C  0.25978218  0.90417472  0.07932751    -0.04400
C716        C  0.28698335  0.91895142  0.09886099    -0.01520
C717        C  0.28506910  0.94957337  0.11939516     0.03470
C718        C  0.25600544  0.96550101  0.12077858    -0.04400
C719        C  0.22936961  0.95140799  0.09929373    -0.01510
C720        C  0.23167110  0.92170543  0.07685789     0.03470
C721        C  0.31698523  0.90302256  0.09772708     0.38120
C722        C  0.19873755  0.96606832  0.10371490     0.38110
C723        C  0.20516776  0.90973286  0.04994714     0.36530
C724        C  0.31276645  0.96437908  0.14030169     0.36530
N725        N  0.18409164  0.90069429  0.02798496    -0.38290
N726        N  0.33485749  0.97617037  0.15705536    -0.38290
N727        N  0.17412299  0.97721900  0.10808491    -0.37730
N728        N  0.34128183  0.89095738  0.09583662    -0.37740
C729        C  0.50616859  0.82155761  0.62820274    -0.04400
C730        C  0.03332586  0.84059791  0.63674703    -0.01520
C731        C  0.03699701  0.86916416  0.61546884     0.03470
C732        C  0.01391330  0.87831110  0.58487882    -0.04400
C733        C  0.48840065  0.85784733  0.57330126    -0.01510
C734        C  0.48395012  0.83012547  0.59583396     0.03470
C735        C  0.05749806  0.83074437  0.66728160     0.38120
C736        C  0.46691488  0.86506749  0.53745829     0.38110
C737        C  0.45566651  0.81122965  0.58699765     0.36530
C738        C  0.06394273  0.88951256  0.62594479     0.36530
N739        N  0.43311410  0.79618927  0.58002295    -0.38290
N740        N  0.08547286  0.90575884  0.63416936    -0.38290
N741        N  0.44998908  0.87039864  0.50848002    -0.37730
N742        N  0.07674535  0.82276659  0.69162929    -0.37740
C743        C  0.48812090  0.70544533  0.62559349    -0.04400
C744        C  0.45892753  0.68918592  0.62342723    -0.01520
C745        C  0.45646018  0.65937433  0.60080227     0.03470
C746        C  0.48359636  0.64505817  0.58211137    -0.04400
C747        C  0.01200587  0.66275056  0.58078177    -0.01510
C748        C  0.01438092  0.69257885  0.60300256     0.03470
C749        C  0.43137772  0.70321609  0.64439057     0.38120
C750        C  0.03845828  0.65097177  0.55468458     0.38110
C751        C  0.04421728  0.70961386  0.60373579     0.36530
C752        C  0.42583373  0.64417445  0.59577823     0.36530
N753        N  0.06796144  0.72325427  0.60429935    -0.38290
N754        N  0.40109888  0.63278530  0.59068075    -0.38290
N755        N  0.05942789  0.64181742  0.53347987    -0.37730
N756        N  0.40942830  0.71435530  0.66122172    -0.37740
C757        C  0.50102857  0.81453463  0.36724845    -0.04400
C758        C  0.02281133  0.81906640  0.40317707    -0.01600
C759        C  0.02931696  0.84982027  0.42186056     0.03470
C760        C  0.01700974  0.87638293  0.40136029    -0.04400
C761        C  0.49894497  0.87131956  0.36173647    -0.01510
C762        C  0.48780363  0.84120815  0.34877504     0.03470
C763        C  0.03854055  0.79235908  0.42099296     0.38120
C764        C  0.49216897  0.89688991  0.33314966     0.38110
C765        C  0.46074994  0.83808968  0.31891423     0.36530
C766        C  0.04806002  0.85370897  0.46236090     0.36530
N767        N  0.43866784  0.83560929  0.29611619    -0.38290
N768        N  0.06302400  0.85652788  0.49474226    -0.38290
N769        N  0.48708342  0.91688336  0.30960889    -0.37730
N770        N  0.05111677  0.77103753  0.43519710    -0.37740
C771        C  0.47852254  0.69848054  0.37211768    -0.04400
C772        C  0.45180691  0.68635764  0.39293379    -0.01520
C773        C  0.45353135  0.65764773  0.41464066     0.03470
C774        C  0.48199631  0.63996937  0.41409224    -0.04400
C775        C  0.00928235  0.65393727  0.39517084    -0.01510
C776        C  0.00730432  0.68267862  0.37434433     0.03470
C777        C  0.42243814  0.70342836  0.39158614     0.38120
C778        C  0.04031604  0.64014062  0.39745613     0.38110
C779        C  0.03528179  0.69630365  0.35484029     0.36530
C780        C  0.42599379  0.64733592  0.43834253     0.36530
N781        N  0.05742934  0.70724320  0.33930958    -0.38290
N782        N  0.40401445  0.63959959  0.45771337    -0.38290
N783        N  0.06575765  0.63065594  0.39785475    -0.37730
N784        N  0.39901169  0.71705737  0.39039544    -0.37740
C785        C  0.12810392  0.99570006  0.60091881    -0.04400
C786        C  0.13201319  0.01161645  0.64316454    -0.01520
C787        C  0.16225105  0.51980696  0.65973920     0.03470
C788        C  0.18961792  0.50778231  0.63833194    -0.04400
C789        C  0.18572936  0.49004278  0.59716566    -0.01510
C790        C  0.15525246  0.98446806  0.57835334     0.03470
C791        C  0.10491422  0.01858347  0.67107229     0.38120
C792        C  0.21268805  0.47799629  0.57271439     0.38110
C793        C  0.15223312  0.96728748  0.53548913     0.36530
C794        C  0.16483932  0.54231863  0.69771999     0.36530
N795        N  0.15033142  0.95329307  0.50147914    -0.38290
N796        N  0.16678507  0.56030635  0.72788749    -0.38290
N797        N  0.23338675  0.46856785  0.55123148    -0.37730
N798        N  0.08365715  0.02381868  0.69406720    -0.37740
C799        C  0.30829928  0.52616113  0.63873544    -0.04400
C800        C  0.31692329  0.50085933  0.60927232    -0.01520
C801        C  0.34542778  0.50191901  0.58584326     0.03470
C802        C  0.36732541  0.52668135  0.59491044    -0.04400
C803        C  0.36023624  0.55035636  0.62784425    -0.01510
C804        C  0.33022591  0.55097463  0.64812161     0.03470
C805        C  0.29849988  0.97191809  0.60720588     0.38120
C806        C  0.38504040  0.57136607  0.64508479     0.38110
C807        C  0.32249715  0.57643531  0.67996496     0.36530
C808        C  0.35290316  0.97628247  0.55420450     0.36530
N809        N  0.31640009  0.59669259  0.70553056    -0.38290
N810        N  0.35863297  0.95539600  0.52959447    -0.38290
N811        N  0.40511537  0.58724698  0.66023184    -0.37730
N812        N  0.28465708  0.94836104  0.60659197    -0.37740
C813        C  0.18823636  0.50108704  0.36620828    -0.04400
C814        C  0.18093909  0.51965116  0.40518896    -0.01520
C815        C  0.15251613  0.01458493  0.42772088     0.03470
C816        C  0.13036253  0.99209065  0.41047572    -0.04400
C817        C  0.13779371  0.97283956  0.37258950    -0.01510
C818        C  0.16691833  0.47684638  0.35098768     0.03470
C819        C  0.20167026  0.54526390  0.42096488     0.38120
C820        C  0.11492099  0.94980401  0.35489939     0.38110
C821        C  0.17478931  0.45602412  0.31302048     0.36530
C822        C  0.14576814  0.03296371  0.46857372     0.36530
N823        N  0.18104308  0.43951341  0.28261305    -0.38290
N824        N  0.14060973  0.04742062  0.50135332    -0.38290
N825        N  0.09656703  0.93153363  0.34076316    -0.37730
N826        N  0.21817369  0.56568092  0.43362414    -0.37740
C827        C  0.36630912  0.51805441  0.40440360    -0.04400
C828        C  0.34740792  0.99028102  0.40260694    -0.01520
C829        C  0.31764379  0.98958415  0.38133994     0.03470
C830        C  0.30603707  0.51660344  0.36197041    -0.04400
C831        C  0.32472007  0.54431809  0.36349942    -0.01510
C832        C  0.35490165  0.54488062  0.38392242     0.03470
C833        C  0.35836402  0.96181017  0.42178107     0.38120
C834        C  0.31285417  0.57237980  0.34411161     0.38110
C835        C  0.37512462  0.57224257  0.38050184     0.36530
C836        C  0.29936442  0.96051093  0.37797818     0.36530
N837        N  0.39138210  0.59388105  0.37677813    -0.38290
N838        N  0.28479408  0.93736958  0.37525773    -0.38290
N839        N  0.30340361  0.59478720  0.32869105    -0.37730
N840        N  0.36631150  0.93844705  0.43601881    -0.37740
O841        O  0.91537060  0.49383361  0.41568926    -0.74360
O842        O  0.90745260  0.04167490  0.45120695    -0.53260
C843        C  0.89849131  0.01808285  0.42516549     0.79370
O844        O  0.98869928  0.42632248  0.57808521    -0.58960
O845        O  0.53659339  0.41975810  0.54480055    -0.51990
C846        C  0.51356859  0.41041928  0.56859221     0.71390
O847        O  0.91477893  0.50004081  0.58223675    -0.73520
O848        O  0.90819206  0.04660042  0.54909702    -0.54080
C849        C  0.89899399  0.02472589  0.57428484     0.77390
O850        O  0.99242196  0.42484614  0.41550672    -0.58660
O851        O  0.53903516  0.41808398  0.45117497    -0.51780
C852        C  0.51681795  0.40857582  0.42400836     0.73980
Zr853      Zr  0.96771187  0.47490300  0.43147663     2.54710
O854        O  0.93186487  0.43083232  0.41529249    -0.79230
O855        O  0.97337715  0.48025121  0.35161133    -0.92640
Zr856      Zr  0.96514321  0.47657691  0.56384292     2.64680
O857        O  0.92261891  0.43792773  0.56668353    -0.97600
O858        O  0.97007291  0.48051431  0.64472386    -0.79660
O859        O  0.94380564  0.49572139  0.49739033    -0.83020
O860        O  0.98731261  0.45432162  0.49760834    -2.17730
O861        O  0.58160202  0.01652508  0.41829945    -0.66410
O862        O  0.58928816  0.47137833  0.45459899    -0.50970
C863        C  0.59804779  0.49276063  0.42844973     0.72360
O864        O  0.50811265  0.09558320  0.57669238    -0.59310
O865        O  0.95987780  0.09998342  0.54371304    -0.51290
C866        C  0.98355383  0.11132622  0.56650519     0.74170
O867        O  0.57972313  0.02031811  0.58701946    -0.70710
O868        O  0.58783042  0.47263061  0.55139980    -0.49390
C869        C  0.59639230  0.49571670  0.57849968     0.75550
O870        O  0.50833693  0.09120241  0.42305378    -0.66040
O871        O  0.96092648  0.09744851  0.45647561    -0.53240
C872        C  0.98368040  0.10749505  0.43252928     0.73930
Zr873      Zr  0.53185094  0.04094819  0.43809445     2.77540
O874        O  0.57317591  0.08067294  0.45026841    -0.96790
O875        O  0.53186725  0.04119892  0.35712470    -0.77610
Zr876      Zr  0.52883412  0.04247349  0.56960063     2.70070
O877        O  0.56939336  0.08108711  0.59202402    -0.78860
O878        O  0.51591983  0.03952070  0.64798370    -0.97940
Zr879      Zr  0.95366256  0.05090192  0.49996962     2.21500
Zr880      Zr  0.54263883  0.46561697  0.50056676     2.11130
O881        O  0.55258886  0.02090385  0.50391768    -2.46630
O882        O  0.50865305  0.06254220  0.50359218    -0.78650
O883        O  0.52249967  0.48587441  0.43321861    -0.70840
O884        O  0.97410364  0.03159642  0.56779565    -2.31800
O885        O  0.97698267  0.02972934  0.43298177    -2.28010
O886        O  0.52001841  0.48744695  0.56811176    -0.72600
H887        H  0.98314610  0.43199508  0.49630658     0.79390
H888        H  0.96409117  0.04161111  0.59350500     0.80480
H889        H  0.57496040  0.02521976  0.50497646     0.82710
H890        H  0.96768669  0.03897826  0.40738891     0.80310
H891        H  0.95741882  0.49905356  0.65417852     0.43350
H892        H  0.52451589  0.01913780  0.65638176     0.42320
H893        H  0.58294560  0.08241476  0.56550914     0.42000
H894        H  0.58179360  0.07756781  0.48038063     0.39930
H895        H  0.53466423  0.01890162  0.34707239     0.43060
H896        H  0.97215121  0.50300980  0.34699088     0.37850
H897        H  0.93049236  0.42019611  0.44373173     0.43960
H898        H  0.92373379  0.42561798  0.53789104     0.40380
H899        H  0.59044191  0.07461921  0.42969371     0.45300
H900        H  0.95344850  0.47144933  0.33860009     0.44020
H901        H  0.92903071  0.42319689  0.58939135     0.44160
H902        H  0.52971829  0.05555224  0.66349986     0.44510
C903        C  0.97744196  0.22774379  0.34745629     0.04060
C904        C  0.98469699  0.25683164  0.36982661    -0.12080
C905        C  0.99360482  0.28279558  0.34554234     0.01570
C906        C  0.99488680  0.27904510  0.29886616    -0.10610
C907        C  0.98512113  0.25112649  0.27633101     0.04060
C908        C  0.97659323  0.22531302  0.30060263    -0.10030
H909        H  0.98456478  0.25873049  0.40589831     0.09650
H910        H  0.00294645  0.29834933  0.27962567     0.07180
H911        H  0.97139124  0.20288770  0.28324327     0.07030
C912        C  0.71760529  0.00760158  0.34086903     0.04060
C913        C  0.74720274  0.00890985  0.36244934    -0.12080
C914        C  0.77476514  0.01535937  0.33887060     0.01570
C915        C  0.77280478  0.01895935  0.29285509    -0.10610
C916        C  0.74352729  0.01744030  0.27088084     0.04060
C917        C  0.71597940  0.01269184  0.29505696    -0.10030
H918        H  0.74888170  0.00478892  0.39765649     0.09650
H919        H  0.79411126  0.02259252  0.27404126     0.07180
H920        H  0.69337591  0.01215408  0.27792977     0.07030
C921        C  0.72121269  0.01194525  0.66159100     0.04060
C922        C  0.74895205  0.02088909  0.63966149    -0.12080
C923        C  0.77792167  0.02420184  0.66315664     0.01570
C924        C  0.77842046  0.02179107  0.70954028    -0.10610
C925        C  0.75082740  0.01436004  0.73178224     0.04060
C926        C  0.72319208  0.00739982  0.70755694    -0.10030
H927        H  0.74845363  0.02469255  0.60435825     0.09650
H928        H  0.80033690  0.02484586  0.72814329     0.07180
H929        H  0.70273440  0.99931992  0.72522601     0.07030
C930        C  0.99119668  0.23612652  0.65100150     0.04060
C931        C  0.99763496  0.26347229  0.62880640    -0.12080
C932        C  0.00088914  0.29255254  0.65262480     0.01570
C933        C  0.99812504  0.29402584  0.69927108    -0.10610
C934        C  0.99227553  0.26658346  0.72165142     0.04060
C935        C  0.98866062  0.23775451  0.69745460    -0.10030
H936        H  0.99994628  0.26212947  0.59285389     0.09650
H937        H  0.00065737  0.31635002  0.71804297     0.07180
H938        H  0.98441577  0.21648613  0.71484797     0.07030
C939        C  0.75208342  0.49508493  0.14873630     0.04060
C940        C  0.75181796  0.49343270  0.19508324    -0.12080
C941        C  0.74216699  0.01912872  0.22217410     0.01570
C942        C  0.73205578  0.04644835  0.20281977    -0.10610
C943        C  0.73485114  0.04982914  0.15657113     0.04060
C944        C  0.74491066  0.02368019  0.12963172    -0.10030
H945        H  0.75804835  0.47171105  0.21003802     0.09650
H946        H  0.72329097  0.06562333  0.22422486     0.07180
H947        H  0.74691539  0.02525397  0.09393331     0.07030
O948        O  0.73200408  0.34603988  0.91809135    -0.74360
O949        O  0.78077899  0.35211292  0.94994351    -0.53260
C950        C  0.75814598  0.36122798  0.92485550     0.79370
O951        O  0.65896120  0.28125734  0.08826612    -0.58960
O952        O  0.64945852  0.23367944  0.05192402    -0.51990
C953        C  0.64158982  0.25674677  0.07890554     0.71390
O954        O  0.73427443  0.35454320  0.07550656    -0.73520
O955        O  0.78197515  0.35815846  0.04181009    -0.54080
C956        C  0.75902918  0.37004638  0.06467152     0.77390
O957        O  0.65524580  0.27452263  0.92082094    -0.58660
O958        O  0.64821292  0.22816218  0.95458653    -0.51780
C959        C  0.63910354  0.24995495  0.92930193     0.73980
Zr960      Zr  0.70650140  0.29745307  0.93798959     2.54710
O961        O  0.66826719  0.33965763  0.93847018    -0.79230
O962        O  0.70452379  0.28882000  0.85743292    -0.92640
Zr963      Zr  0.71135077  0.30167972  0.07030176     2.64680
O964        O  0.67927061  0.34560365  0.09702703    -0.97600
O965        O  0.72385724  0.29686993  0.14877841    -0.79660
O966        O  0.73085487  0.32034374  0.00290958    -0.83020
O967        O  0.68578264  0.27952262  0.00511628    -2.17730
O968        O  0.74413015  0.17832640  0.92294819    -0.66410
O969        O  0.69780320  0.17370597  0.96014699    -0.50970
C970        C  0.72001217  0.16245481  0.93514635     0.72360
O971        O  0.82634209  0.25343219  0.07401213    -0.59310
O972        O  0.83294126  0.30134679  0.04454708    -0.51290
C973        C  0.84275600  0.27785472  0.06612891     0.74170
O974        O  0.74672543  0.18725171  0.08608811    -0.70710
O975        O  0.69836664  0.18032716  0.05335568    -0.49390
C976        C  0.72081364  0.17174820  0.07920641     0.75550
O977        O  0.82088023  0.24989723  0.91827701    -0.66040
O978        O  0.82964008  0.29930700  0.94852830    -0.53240
C979        C  0.83788727  0.27491877  0.92436440     0.73930
Zr980      Zr  0.76810238  0.23050744  0.93278335     2.77540
O981        O  0.80835969  0.19334564  0.90757073    -0.96790
O982        O  0.75526629  0.23566168  0.85445539    -0.77610
Zr983      Zr  0.77278306  0.23517672  0.06522771     2.70070
O984        O  0.80914682  0.19192046  0.07263980    -0.78860
O985        O  0.77452805  0.24756610  0.14510896    -0.97940
Zr986      Zr  0.78549711  0.30818315  0.99883567     2.21500
Zr987      Zr  0.69430819  0.22386638  0.00350456     2.11130
O988        O  0.74916235  0.21159082  0.00043892    -2.46630
O989        O  0.79324666  0.25283666  0.99779098    -0.78650
O990        O  0.71379344  0.24229031  0.93505795    -0.70840
O991        O  0.76586655  0.29034422  0.06784421    -2.31800
O992        O  0.76077746  0.28546562  0.93262797    -2.28010
O993        O  0.71847070  0.24661460  0.07021410    -0.72600
H994        H  0.66361672  0.28441295  0.00582819     0.79390
H995        H  0.77694774  0.30049944  0.09298277     0.80480
H996        H  0.75277090  0.18934640  0.00162919     0.82710
H997        H  0.76983138  0.29371325  0.90621225     0.80310
H998        H  0.73400198  0.31719554  0.15823679     0.43350
H999        H  0.75318839  0.24206753  0.15541543     0.42320
H1000       H  0.81674819  0.18716385  0.04197593     0.42000
H1001       H  0.81406723  0.18198583  0.93429089     0.39930
H1002       H  0.73801184  0.22020998  0.84808008     0.43060
H1003       H  0.72627880  0.29302880  0.84759574     0.37850
H1004       H  0.66469322  0.34498557  0.97049325     0.43960
H1005       H  0.66521529  0.34942952  0.07153558     0.40380
H1006       H  0.79766310  0.17752011  0.88722395     0.45300
H1007       H  0.69190622  0.30647469  0.84707655     0.44020
H1008       H  0.66545232  0.33750909  0.12027346     0.44160
H1009       H  0.78846783  0.23144331  0.15698814     0.44510
C1010       C  0.96121617  0.25905880  0.15605752     0.04060
C1011       C  0.95904981  0.25495992  0.20211985    -0.12080
C1012       C  0.98619961  0.24920696  0.22734629     0.01570
C1013       C  0.51550066  0.24706210  0.20640430    -0.10610
C1014       C  0.51791884  0.25084601  0.16058507     0.04060
C1015       C  0.99077296  0.25683997  0.13557878    -0.10030
H1016       H  0.93649369  0.25737512  0.21856304     0.09650
H1017       H  0.53665155  0.24398295  0.22615526     0.07180
H1018       H  0.99284011  0.26069579  0.10035302     0.07030
C1019       C  0.75051759  0.48342387  0.84682289     0.04060
C1020       C  0.75713366  0.48633124  0.80143052    -0.12080
C1021       C  0.75006651  0.01390216  0.78055426     0.01570
C1022       C  0.73895194  0.04001453  0.80567468    -0.10610
C1023       C  0.73436039  0.03844739  0.85160087     0.04060
C1024       C  0.73922520  0.00984315  0.87188884    -0.10030
H1025       H  0.76630104  0.46652051  0.78163494     0.09650
H1026       H  0.73431557  0.06169502  0.78959202     0.07180
H1027       H  0.73443009  0.00836186  0.90705924     0.07030
C1028       C  0.96150226  0.26571328  0.83921221     0.04060
C1029       C  0.96345164  0.27142310  0.79349972    -0.12080
C1030       C  0.99174666  0.26706959  0.77049835     0.01570
C1031       C  0.51917075  0.25990155  0.79360832    -0.10610
C1032       C  0.51825906  0.25540732  0.83933795     0.04060
C1033       C  0.98921139  0.25718752  0.86170522    -0.10030
H1034       H  0.94266876  0.27814724  0.77524270     0.09650
H1035       H  0.54128716  0.25789933  0.77590242     0.07180
H1036       H  0.98846650  0.25220304  0.89662943     0.07030
C1037       C  0.72031343  0.12833333  0.92117776    -0.04400
C1038       C  0.74876878  0.11175216  0.92623207    -0.01520
C1039       C  0.75310144  0.08239767  0.90367561     0.03470
C1040       C  0.72815114  0.06789837  0.87880961    -0.04400
C1041       C  0.69849607  0.08273510  0.87775164    -0.01510
C1042       C  0.69448997  0.11285154  0.89922797     0.03470
C1043       C  0.77346339  0.12443834  0.95595371     0.38120
C1044       C  0.67238845  0.06730645  0.85373276     0.38110
C1045       C  0.66380421  0.12739496  0.89940683     0.36530
C1046       C  0.78413216  0.06834447  0.90325338     0.36530
N1047       N  0.63892779  0.13827559  0.90055274    -0.38290
N1048       N  0.80908105  0.05761380  0.90228279    -0.38290
N1049       N  0.65152182  0.05501787  0.83456040    -0.37730
N1050       N  0.79302351  0.13405559  0.98021815    -0.37740
C1051       C  0.76100821  0.39177741  0.90248101    -0.04400
C1052       C  0.74594503  0.39499001  0.86077142    -0.01520
C1053       C  0.74072864  0.42488615  0.84455666     0.03470
C1054       C  0.75407986  0.45208431  0.86669313    -0.04400
C1055       C  0.77192083  0.44867460  0.90617203    -0.01510
C1056       C  0.77507575  0.41880330  0.92419266     0.03470
C1057       C  0.73762802  0.36749352  0.83243151     0.38120
C1058       C  0.78728006  0.47574293  0.92857185     0.38110
C1059       C  0.79343224  0.41623509  0.96462649     0.36530
C1060       C  0.72034653  0.42744492  0.80579924     0.36530
N1061       N  0.80886960  0.41475306  0.99631937    -0.38290
N1062       N  0.70412697  0.42941379  0.77492207    -0.38290
N1063       N  0.79952894  0.99701414  0.94726503    -0.37730
N1064       N  0.73154519  0.34622232  0.80826446    -0.37740
C1065       C  0.87549823  0.27739860  0.08341462    -0.04400
C1066       C  0.88498598  0.29756294  0.11983649    -0.01520
C1067       C  0.91425629  0.29308208  0.14111311     0.03470
C1068       C  0.93264237  0.26643129  0.12933044    -0.04400
C1069       C  0.92321449  0.24641438  0.09247825    -0.01510
C1070       C  0.89531553  0.25251731  0.06877748     0.03470
C1071       C  0.86334778  0.32076727  0.13842292     0.38120
C1072       C  0.94128891  0.21859265  0.08021735     0.38110
C1073       C  0.88626465  0.23237989  0.03016518     0.36530
C1074       C  0.92580245  0.31644740  0.17419740     0.36530
N1075       N  0.87900204  0.21641954  0.99933502    -0.38290
N1076       N  0.93521631  0.33562581  0.19972065    -0.38290
N1077       N  0.95569699  0.19637251  0.07058670    -0.37730
N1078       N  0.84580581  0.33860912  0.15431024    -0.37740
C1079       C  0.60999267  0.25522222  0.10040816    -0.04400
C1080       C  0.59075033  0.28228126  0.10465805    -0.01520
C1081       C  0.56084090  0.28066523  0.12445016     0.03470
C1082       C  0.54946840  0.25203683  0.13970401    -0.04400
C1083       C  0.56848008  0.22507637  0.13609984    -0.01510
C1084       C  0.59865708  0.22662948  0.11675829     0.03470
C1085       C  0.60074260  0.31202319  0.08801314     0.38120
C1086       C  0.55682858  0.19562876  0.15207247     0.38110
C1087       C  0.61834680  0.19893731  0.11525460     0.36530
C1088       C  0.54188680  0.30883231  0.13003209     0.36530
N1089       N  0.63400342  0.17682604  0.11417544    -0.38290
N1090       N  0.52674046  0.33119954  0.13451971    -0.38290
N1091       N  0.54748718  0.17219390  0.16492053    -0.37730
N1092       N  0.60715320  0.33645910  0.07551765    -0.37740
C1093       C  0.86930984  0.27463477  0.90191383    -0.04400
C1094       C  0.89634005  0.28833410  0.92328440    -0.01520
C1095       C  0.92640274  0.28514112  0.90356143     0.03470
C1096       C  0.93012108  0.26779488  0.86228369    -0.04400
C1097       C  0.90308427  0.25329503  0.84176767    -0.01510
C1098       C  0.87291864  0.25803128  0.86013099     0.03470
C1099       C  0.89371609  0.30563988  0.96601050     0.38120
C1100       C  0.90620644  0.23193938  0.80274775     0.38110
C1101       C  0.84546691  0.24666480  0.83463174     0.36530
C1102       C  0.95322789  0.29954076  0.92708282     0.36530
N1103       N  0.82368850  0.23777047  0.81399943    -0.38290
N1104       N  0.97372288  0.31088909  0.94807147    -0.38290
N1105       N  0.90861459  0.21484124  0.77175273    -0.37730
N1106       N  0.89228907  0.31986297  0.99981170    -0.37740
C1107       C  0.60702380  0.24837860  0.90946608    -0.04400
C1108       C  0.58595901  0.27299360  0.92040302    -0.01520
C1109       C  0.55770685  0.27568207  0.89626025     0.03470
C1110       C  0.54832289  0.25184659  0.86439826    -0.04400
C1111       C  0.56928854  0.22699758  0.85345051    -0.01510
C1112       C  0.59920463  0.22620419  0.87449113     0.03470
C1113       C  0.59433964  0.29704432  0.95450482     0.38120
C1114       C  0.56084929  0.20322224  0.81896272     0.38110
C1115       C  0.62326930  0.20543678  0.85630883     0.36530
C1116       C  0.54079838  0.30512945  0.89968051     0.36530
N1117       N  0.64282662  0.18980642  0.84060023    -0.38290
N1118       N  0.52840520  0.32921864  0.90126905    -0.38290
N1119       N  0.55422848  0.18436379  0.79122372    -0.37730
N1120       N  0.60096104  0.31658322  0.98119501    -0.37740
C1121       C  0.72859706  0.08123891  0.13753636    -0.04400
C1122       C  0.74127049  0.10903737  0.15908314    -0.01520
C1123       C  0.73408473  0.13870158  0.14346109     0.03470
C1124       C  0.71842588  0.14135044  0.10207974    -0.04400
C1125       C  0.70526142  0.11382293  0.08059555    -0.01510
C1126       C  0.70958866  0.08411384  0.09883332     0.03470
C1127       C  0.76355259  0.10750827  0.19588647     0.38120
C1128       C  0.68741680  0.11563004  0.03948696     0.38110
C1129       C  0.69440981  0.05671932  0.07710650     0.36530
C1130       C  0.74193389  0.16656312  0.17140104     0.36530
N1131       N  0.68221585  0.03529359  0.05871983    -0.38290
N1132       N  0.74780449  0.18830385  0.19480780    -0.38290
N1133       N  0.67275858  0.11659208  0.00696018    -0.37730
N1134       N  0.78139177  0.10645795  0.22511441    -0.37740
C1135       C  0.75978220  0.40417468  0.07932740    -0.04400
C1136       C  0.78698337  0.41895138  0.09886088    -0.01520
C1137       C  0.78506912  0.44957335  0.11939502     0.03470
C1138       C  0.75600546  0.46550098  0.12077842    -0.04400
C1139       C  0.72936963  0.45140796  0.09929357    -0.01510
C1140       C  0.73167112  0.42170540  0.07685775     0.03470
C1141       C  0.81698524  0.40302252  0.09772700     0.38120
C1142       C  0.69873757  0.46606828  0.10371473     0.38110
C1143       C  0.70516779  0.40973281  0.04994700     0.36530
C1144       C  0.81276646  0.46437906  0.14030156     0.36530
N1145       N  0.68409167  0.40069423  0.02798482    -0.38290
N1146       N  0.83485750  0.47617036  0.15705522    -0.38290
N1147       N  0.67412301  0.47721896  0.10808473    -0.37730
N1148       N  0.84128185  0.39095734  0.09583657    -0.37740
C1149       C  0.00616855  0.32155763  0.62820275    -0.04400
C1150       C  0.53332595  0.34059791  0.63674688    -0.01520
C1151       C  0.53699711  0.36916415  0.61546867     0.03470
C1152       C  0.51391341  0.37831108  0.58487862    -0.04400
C1153       C  0.98840058  0.35784737  0.57330131    -0.01510
C1154       C  0.98395007  0.33012551  0.59583400     0.03470
C1155       C  0.55749813  0.33074438  0.66728148     0.38120
C1156       C  0.96691480  0.36506755  0.53745836     0.38110
C1157       C  0.95566644  0.31122971  0.58699772     0.36530
C1158       C  0.56394283  0.38951255  0.62594460     0.36530
N1159       N  0.93311401  0.29618934  0.58002304    -0.38290
N1160       N  0.58547297  0.40575882  0.63416917    -0.38290
N1161       N  0.94998899  0.37039870  0.50848012    -0.37730
N1162       N  0.57674542  0.32276661  0.69162918    -0.37740
C1163       C  0.98812083  0.20544536  0.62559339    -0.04400
C1164       C  0.95892745  0.18918595  0.62342714    -0.01520
C1165       C  0.95646009  0.15937436  0.60080218     0.03470
C1166       C  0.98359626  0.14505820  0.58211127    -0.04400
C1167       C  0.51200590  0.16275055  0.58078170    -0.01510
C1168       C  0.51438096  0.19257884  0.60300249     0.03470
C1169       C  0.93137765  0.20321612  0.64439051     0.38120
C1170       C  0.53845832  0.15097176  0.55468452     0.38110
C1171       C  0.54421733  0.20961385  0.60373572     0.36530
C1172       C  0.92583364  0.14417448  0.59577817     0.36530
N1173       N  0.56796148  0.22325426  0.60429927    -0.38290
N1174       N  0.90109878  0.13278533  0.59068071    -0.38290
N1175       N  0.55942792  0.14181741  0.53347980    -0.37730
N1176       N  0.90942824  0.21435533  0.66122169    -0.37740
C1177       C  0.00102862  0.31453463  0.36724851    -0.04400
C1178       C  0.52281122  0.31906640  0.40317690    -0.01600
C1179       C  0.52931685  0.34982027  0.42186035     0.03470
C1180       C  0.51700954  0.37638292  0.40136013    -0.04400
C1181       C  0.99894494  0.37131955  0.36173655    -0.01510
C1182       C  0.98780363  0.34120813  0.34877513     0.03470
C1183       C  0.53854050  0.29235909  0.42099275     0.38120
C1184       C  0.99216888  0.39688989  0.33314975     0.38110
C1185       C  0.96074993  0.33808962  0.31891434     0.36530
C1186       C  0.54806000  0.35370900  0.46236060     0.36530
N1187       N  0.93866783  0.33560920  0.29611631    -0.38290
N1188       N  0.56302406  0.35652793  0.49474188    -0.38290
N1189       N  0.98708327  0.41688333  0.30960898    -0.37730
N1190       N  0.55111678  0.27103756  0.43519684    -0.37740
C1191       C  0.97852265  0.19848048  0.37211758    -0.04400
C1192       C  0.95180707  0.18635771  0.39293393    -0.01520
C1193       C  0.95353145  0.15764773  0.41464066     0.03470
C1194       C  0.98199628  0.13996915  0.41409175    -0.04400
C1195       C  0.50928234  0.15393721  0.39517075    -0.01510
C1196       C  0.50730430  0.18267855  0.37434423     0.03470
C1197       C  0.92243839  0.20342861  0.39158667     0.38120
C1198       C  0.54031603  0.14014056  0.39745603     0.38110
C1199       C  0.53528176  0.19630357  0.35484014     0.36530
C1200       C  0.92599394  0.14733605  0.43834276     0.36530
N1201       N  0.55742930  0.20724311  0.33930940    -0.38290
N1202       N  0.90401464  0.13959981  0.45771376    -0.38290
N1203       N  0.56575763  0.13065589  0.39785464    -0.37730
N1204       N  0.89901202  0.21705776  0.39039626    -0.37740
C1205       C  0.62810397  0.49569988  0.60091862    -0.04400
C1206       C  0.63201316  0.51161608  0.64316449    -0.01520
C1207       C  0.66225102  0.01980691  0.65973922     0.03470
C1208       C  0.68961789  0.00778227  0.63833195    -0.04400
C1209       C  0.68572934  0.99004276  0.59716567    -0.01510
C1210       C  0.65525255  0.48446810  0.57835307     0.03470
C1211       C  0.60491415  0.51858278  0.67107230     0.38120
C1212       C  0.71268804  0.97799630  0.57271438     0.38110
C1213       C  0.65223328  0.46728765  0.53548876     0.36530
C1214       C  0.66483927  0.04231857  0.69772002     0.36530
N1215       N  0.65033162  0.45329335  0.50147868    -0.38290
N1216       N  0.66678502  0.06030628  0.72788754    -0.38290
N1217       N  0.73338674  0.96856788  0.55123144    -0.37730
N1218       N  0.58365705  0.52381771  0.69406727    -0.37740
C1219       C  0.80829922  0.02616115  0.63873542    -0.04400
C1220       C  0.81692321  0.00085937  0.60927225    -0.01520
C1221       C  0.84542767  0.00191908  0.58584314     0.03470
C1222       C  0.86732532  0.02668141  0.59491035    -0.04400
C1223       C  0.86023617  0.05035639  0.62784421    -0.01510
C1224       C  0.83022585  0.05097465  0.64812160     0.03470
C1225       C  0.79849978  0.47191827  0.60720576     0.38120
C1226       C  0.88504035  0.07136609  0.64508474     0.38110
C1227       C  0.82249712  0.07643531  0.67996499     0.36530
C1228       C  0.85290307  0.47628264  0.55420440     0.36530
N1229       N  0.81640007  0.09669258  0.70553062    -0.38290
N1230       N  0.85863285  0.45539620  0.52959431    -0.38290
N1231       N  0.90511533  0.08724700  0.66023179    -0.37730
N1232       N  0.78465694  0.44836125  0.60659177    -0.37740
C1233       C  0.68823638  0.00108698  0.36620827    -0.04400
C1234       C  0.68093911  0.01965110  0.40518895    -0.01520
C1235       C  0.65251612  0.51458498  0.42772064     0.03470
C1236       C  0.63036252  0.49209068  0.41047547    -0.04400
C1237       C  0.63779374  0.47283956  0.37258930    -0.01510
C1238       C  0.66691834  0.97684634  0.35098765     0.03470
C1239       C  0.70167029  0.04526382  0.42096490     0.38120
C1240       C  0.61492104  0.44980399  0.35489921     0.38110
C1241       C  0.67478932  0.95602408  0.31302045     0.36530
C1242       C  0.64576812  0.53296375  0.46857349     0.36530
N1243       N  0.68104308  0.93951337  0.28261301    -0.38290
N1244       N  0.64060974  0.54742065  0.50135311    -0.38290
N1245       N  0.59656710  0.43153358  0.34076299    -0.37730
N1246       N  0.71817373  0.06568082  0.43362418    -0.37740
C1247       C  0.86630915  0.01805431  0.40440351    -0.04400
C1248       C  0.84740795  0.49028104  0.40260684    -0.01520
C1249       C  0.81764383  0.48958416  0.38133983     0.03470
C1250       C  0.80603709  0.01660335  0.36197036    -0.04400
C1251       C  0.82472008  0.04431802  0.36349942    -0.01510
C1252       C  0.85490165  0.04488055  0.38392242     0.03470
C1253       C  0.85836405  0.46181019  0.42178098     0.38120
C1254       C  0.81285415  0.07237974  0.34411167     0.38110
C1255       C  0.87512458  0.07224255  0.38050200     0.36530
C1256       C  0.79936447  0.46051094  0.37797807     0.36530
N1257       N  0.89138201  0.09388108  0.37677845    -0.38290
N1258       N  0.78479413  0.43736958  0.37525760    -0.38290
N1259       N  0.80340357  0.09478716  0.32869116    -0.37730
N1260       N  0.86631154  0.43844707  0.43601872    -0.37740
O1261       O  0.91537064  0.99383353  0.41568925    -0.74360
O1262       O  0.90745262  0.54167499  0.45120696    -0.53260
C1263       C  0.89849130  0.51808294  0.42516552     0.79370
O1264       O  0.98869915  0.92632248  0.57808536    -0.58960
O1265       O  0.53659342  0.91975808  0.54480049    -0.51990
C1266       C  0.51356862  0.91041926  0.56859217     0.71390
O1267       O  0.91477882  0.00004083  0.58223676    -0.73520
O1268       O  0.90819213  0.54660041  0.54909705    -0.54080
C1269       C  0.89899408  0.52472586  0.57428486     0.77390
O1270       O  0.99242209  0.92484612  0.41550685    -0.58660
O1271       O  0.53903517  0.91808396  0.45117492    -0.51780
C1272       C  0.51681796  0.90857581  0.42400831     0.73980
Zr1273     Zr  0.96771191  0.97490294  0.43147673     2.54710
O1274       O  0.93186497  0.93083220  0.41529264    -0.79230
O1275       O  0.97337721  0.98025114  0.35161144    -0.92640
Zr1276     Zr  0.96514309  0.97657689  0.56384300     2.64680
O1277       O  0.92261876  0.93792775  0.56668347    -0.97600
O1278       O  0.97007269  0.98051426  0.64472395    -0.79660
O1279       O  0.94380559  0.99572136  0.49739036    -0.83020
O1280       O  0.98731259  0.95432160  0.49760849    -2.17730
O1281       O  0.58160202  0.51652510  0.41829952    -0.66410
O1282       O  0.58928817  0.97137832  0.45459894    -0.50970
C1283       C  0.59804780  0.99276061  0.42844967     0.72360
O1284       O  0.50811263  0.59558319  0.57669247    -0.59310
O1285       O  0.95987788  0.59998341  0.54371310    -0.51290
C1286       C  0.98355392  0.61132620  0.56650523     0.74170
O1287       O  0.57972314  0.52031813  0.58701949    -0.70710
O1288       O  0.58783042  0.97263059  0.55139976    -0.49390
C1289       C  0.59639229  0.99571668  0.57849966     0.75550
O1290       O  0.50833692  0.59120244  0.42305384    -0.66040
O1291       O  0.96092659  0.59744863  0.45647581    -0.53240
C1292       C  0.98368051  0.60749525  0.43252955     0.73930
Zr1293     Zr  0.53185094  0.54094822  0.43809452     2.77540
O1294       O  0.57317590  0.58067297  0.45026853    -0.96790
O1295       O  0.53186727  0.54119897  0.35712477    -0.77610
Zr1296     Zr  0.52883410  0.54247349  0.56960070     2.70070
O1297       O  0.56939331  0.58108711  0.59202418    -0.78860
O1298       O  0.51591979  0.53952064  0.64798376    -0.97940
Zr1299     Zr  0.95366261  0.55090195  0.49996960     2.21500
Zr1300     Zr  0.54263884  0.96561696  0.50056671     2.11130
O1301       O  0.55258885  0.52090386  0.50391775    -2.46630
O1302       O  0.50865303  0.56254222  0.50359225    -0.78650
O1303       O  0.52249967  0.98587439  0.43321855    -0.70840
O1304       O  0.97410377  0.53159643  0.56779556    -2.31800
O1305       O  0.97698263  0.52972940  0.43298166    -2.28010
O1306       O  0.52001845  0.98744695  0.56811171    -0.72600
H1307       H  0.98314609  0.93199505  0.49630672     0.79390
H1308       H  0.96409133  0.54161111  0.59350494     0.80480
H1309       H  0.57496039  0.52521977  0.50497653     0.82710
H1310       H  0.96768661  0.53897834  0.40738884     0.80310
H1311       H  0.95741857  0.99905350  0.65417861     0.43350
H1312       H  0.52451590  0.51913774  0.65638181     0.42320
H1313       H  0.58294555  0.58241481  0.56550931     0.42000
H1314       H  0.58179358  0.57756783  0.48038076     0.39930
H1315       H  0.53466429  0.51890167  0.34707246     0.43060
H1316       H  0.97215097  0.00300971  0.34699094     0.37850
H1317       H  0.93049244  0.92019603  0.44373191     0.43960
H1318       H  0.92373362  0.92561806  0.53789093     0.40380
H1319       H  0.59044192  0.57461923  0.42969386     0.45300
H1320       H  0.95344868  0.97144899  0.33860016     0.44020
H1321       H  0.92903056  0.92319684  0.58939121     0.44160
H1322       H  0.52971821  0.55555220  0.66349994     0.44510
C1323       C  0.97744187  0.72774389  0.34745639     0.04060
C1324       C  0.98469694  0.75683175  0.36982669    -0.12080
C1325       C  0.99360485  0.78279565  0.34554241     0.01570
C1326       C  0.99488684  0.77904513  0.29886623    -0.10610
C1327       C  0.98512112  0.75112653  0.27633109     0.04060
C1328       C  0.97659316  0.72531309  0.30060274    -0.10030
H1329       H  0.98456470  0.75873061  0.40589839     0.09650
H1330       H  0.00294656  0.79834933  0.27962572     0.07180
H1331       H  0.97139115  0.70288776  0.28324341     0.07030
C1332       C  0.71760526  0.50760162  0.34086905     0.04060
C1333       C  0.74720271  0.50890991  0.36244938    -0.12080
C1334       C  0.77476511  0.51535942  0.33887065     0.01570
C1335       C  0.77280476  0.51895938  0.29285513    -0.10610
C1336       C  0.74352728  0.51744031  0.27088087     0.04060
C1337       C  0.71597938  0.51269185  0.29505698    -0.10030
H1338       H  0.74888166  0.50478900  0.39765654     0.09650
H1339       H  0.79411125  0.52259255  0.27404131     0.07180
H1340       H  0.69337590  0.51215408  0.27792978     0.07030
C1341       C  0.72121273  0.51194526  0.66159098     0.04060
C1342       C  0.74895210  0.52088907  0.63966146    -0.12080
C1343       C  0.77792172  0.52420182  0.66315661     0.01570
C1344       C  0.77842051  0.52179106  0.70954026    -0.10610
C1345       C  0.75082744  0.51436006  0.73178222     0.04060
C1346       C  0.72319212  0.50739983  0.70755692    -0.10030
H1347       H  0.74845368  0.52469251  0.60435822     0.09650
H1348       H  0.80033694  0.52484586  0.72814327     0.07180
H1349       H  0.70273443  0.49931995  0.72522598     0.07030
C1350       C  0.99119669  0.73612648  0.65100162     0.04060
C1351       C  0.99763495  0.76347225  0.62880652    -0.12080
C1352       C  0.00088910  0.79255250  0.65262492     0.01570
C1353       C  0.99812499  0.79402581  0.69927120    -0.10610
C1354       C  0.99227550  0.76658342  0.72165153     0.04060
C1355       C  0.98866062  0.73775447  0.69745472    -0.10030
H1356       H  0.99994627  0.76212944  0.59285401     0.09650
H1357       H  0.00065730  0.81634999  0.71804309     0.07180
H1358       H  0.98441579  0.71648608  0.71484809     0.07030
C1359       C  0.75208341  0.99508494  0.14873627     0.04060
C1360       C  0.75181796  0.99343270  0.19508321    -0.12080
C1361       C  0.74216699  0.51912872  0.22217413     0.01570
C1362       C  0.73205578  0.54644834  0.20281979    -0.10610
C1363       C  0.73485114  0.54982913  0.15657115     0.04060
C1364       C  0.74491067  0.52368019  0.12963174    -0.10030
H1365       H  0.75804834  0.97171105  0.21003798     0.09650
H1366       H  0.72329096  0.56562332  0.22422487     0.07180
H1367       H  0.74691539  0.52525397  0.09393333     0.07030
O1368       O  0.73200406  0.84603988  0.91809139    -0.74360
O1369       O  0.78077897  0.85211292  0.94994355    -0.53260
C1370       C  0.75814596  0.86122797  0.92485553     0.79370
O1371       O  0.65896118  0.78125732  0.08826614    -0.58960
O1372       O  0.64945850  0.73367942  0.05192403    -0.51990
C1373       C  0.64158980  0.75674675  0.07890555     0.71390
O1374       O  0.73427440  0.85454319  0.07550659    -0.73520
O1375       O  0.78197513  0.85815845  0.04181013    -0.54080
C1376       C  0.75902916  0.87004637  0.06467155     0.77390
O1377       O  0.65524578  0.77452264  0.92082098    -0.58660
O1378       O  0.64821290  0.72816219  0.95458655    -0.51780
C1379       C  0.63910352  0.74995497  0.92930196     0.73980
Zr1380     Zr  0.70650138  0.79745307  0.93798963     2.54710
O1381       O  0.66826718  0.83965764  0.93847024    -0.79230
O1382       O  0.70452375  0.78882002  0.85743296    -0.92640
Zr1383     Zr  0.71135075  0.80167970  0.07030180     2.64680
O1384       O  0.67927060  0.84560362  0.09702712    -0.97600
O1385       O  0.72385724  0.79686991  0.14877844    -0.79660
O1386       O  0.73085485  0.82034373  0.00290962    -0.83020
O1387       O  0.68578262  0.77952261  0.00511631    -2.17730
O1388       O  0.74413013  0.67832640  0.92294820    -0.66410
O1389       O  0.69780318  0.67370596  0.96014699    -0.50970
C1390       C  0.72001216  0.66245480  0.93514636     0.72360
O1391       O  0.82634207  0.75343216  0.07401214    -0.59310
O1392       O  0.83294123  0.80134677  0.04454711    -0.51290
C1393       C  0.84275598  0.77785469  0.06612893     0.74170
O1394       O  0.74672541  0.68725169  0.08608812    -0.70710
O1395       O  0.69836661  0.68032714  0.05335569    -0.49390
C1396       C  0.72081362  0.67174819  0.07920642     0.75550
O1397       O  0.82088021  0.74989723  0.91827707    -0.66040
O1398       O  0.82964005  0.79930700  0.94852834    -0.53240
C1399       C  0.83788724  0.77491877  0.92436445     0.73930
Zr1400     Zr  0.76810235  0.73050744  0.93278336     2.77540
O1401       O  0.80835964  0.69334565  0.90757065    -0.96790
O1402       O  0.75526626  0.73566172  0.85445541    -0.77610
Zr1403     Zr  0.77278304  0.73517670  0.06522772     2.70070
O1404       O  0.80914680  0.69192043  0.07263979    -0.78860
O1405       O  0.77452804  0.74756608  0.14510897    -0.97940
Zr1406     Zr  0.78549709  0.80818314  0.99883571     2.21500
Zr1407     Zr  0.69430817  0.72386637  0.00350457     2.11130
O1408       O  0.74916233  0.71159081  0.00043893    -2.46630
O1409       O  0.79324663  0.75283665  0.99779099    -0.78650
O1410       O  0.71379341  0.74229031  0.93505797    -0.70840
O1411       O  0.76586653  0.79034420  0.06784424    -2.31800
O1412       O  0.76077743  0.78546562  0.93262800    -2.28010
O1413       O  0.71847068  0.74661458  0.07021411    -0.72600
H1414       H  0.66361670  0.78441294  0.00582822     0.79390
H1415       H  0.77694772  0.80049942  0.09298281     0.80480
H1416       H  0.75277088  0.68934639  0.00162920     0.82710
H1417       H  0.76983135  0.79371325  0.90621228     0.80310
H1418       H  0.73400197  0.81719551  0.15823682     0.43350
H1419       H  0.75318838  0.74206751  0.15541545     0.42320
H1420       H  0.81674818  0.68716385  0.04197592     0.42000
H1421       H  0.81406718  0.68198580  0.93429078     0.39930
H1422       H  0.73801183  0.72020999  0.84808008     0.43060
H1423       H  0.72627876  0.79302880  0.84759577     0.37850
H1424       H  0.66469322  0.84498558  0.97049332     0.43960
H1425       H  0.66521528  0.84942952  0.07153567     0.40380
H1426       H  0.79766304  0.67752015  0.88722383     0.45300
H1427       H  0.69190619  0.80647472  0.84707660     0.44020
H1428       H  0.66545231  0.83750906  0.12027353     0.44160
H1429       H  0.78846782  0.73144328  0.15698814     0.44510
C1430       C  0.96121615  0.75905882  0.15605759     0.04060
C1431       C  0.95904979  0.75495995  0.20211993    -0.12080
C1432       C  0.98619960  0.74920699  0.22734637     0.01570
C1433       C  0.51550064  0.74706207  0.20640429    -0.10610
C1434       C  0.51791882  0.75084599  0.16058506     0.04060
C1435       C  0.99077295  0.75684000  0.13557885    -0.10030
H1436       H  0.93649367  0.75737514  0.21856312     0.09650
H1437       H  0.53665153  0.74398292  0.22615525     0.07180
H1438       H  0.99284009  0.76069581  0.10035309     0.07030
C1439       C  0.75051757  0.98342386  0.84682291     0.04060
C1440       C  0.75713363  0.98633123  0.80143054    -0.12080
C1441       C  0.75006654  0.51390218  0.78055424     0.01570
C1442       C  0.73895197  0.54001454  0.80567466    -0.10610
C1443       C  0.73436041  0.53844740  0.85160084     0.04060
C1444       C  0.73922522  0.50984316  0.87188881    -0.10030
H1445       H  0.76630101  0.96652050  0.78163496     0.09650
H1446       H  0.73431560  0.56169503  0.78959200     0.07180
H1447       H  0.73443011  0.50836187  0.90705921     0.07030
C1448       C  0.96150223  0.76571326  0.83921232     0.04060
C1449       C  0.96345161  0.77142308  0.79349982    -0.12080
C1450       C  0.99174663  0.76706956  0.77049845     0.01570
C1451       C  0.51917073  0.75990159  0.79360836    -0.10610
C1452       C  0.51825903  0.75540736  0.83933799     0.04060
C1453       C  0.98921136  0.75718750  0.86170533    -0.10030
H1454       H  0.94266873  0.77814721  0.77524280     0.09650
H1455       H  0.54128714  0.75789936  0.77590246     0.07180
H1456       H  0.98846647  0.75220304  0.89662954     0.07030
C1457       C  0.72031343  0.62833332  0.92117776    -0.04400
C1458       C  0.74876877  0.61175217  0.92623206    -0.01520
C1459       C  0.75310144  0.58239768  0.90367560     0.03470
C1460       C  0.72815115  0.56789838  0.87880959    -0.04400
C1461       C  0.69849608  0.58273509  0.87775163    -0.01510
C1462       C  0.69448997  0.61285153  0.89922797     0.03470
C1463       C  0.77346338  0.62443834  0.95595371     0.38120
C1464       C  0.67238846  0.56730644  0.85373273     0.38110
C1465       C  0.66380419  0.62739493  0.89940684     0.36530
C1466       C  0.78413217  0.56834448  0.90325337     0.36530
N1467       N  0.63892778  0.63827555  0.90055277    -0.38290
N1468       N  0.80908106  0.55761382  0.90228278    -0.38290
N1469       N  0.65152184  0.55501786  0.83456037    -0.37730
N1470       N  0.79302350  0.63405560  0.98021815    -0.37740
C1471       C  0.76100820  0.89177741  0.90248104    -0.04400
C1472       C  0.74594502  0.89499000  0.86077144    -0.01520
C1473       C  0.74072862  0.92488614  0.84455669     0.03470
C1474       C  0.75407984  0.95208430  0.86669315    -0.04400
C1475       C  0.77192082  0.94867459  0.90617206    -0.01510
C1476       C  0.77507573  0.91880330  0.92419269     0.03470
C1477       C  0.73762801  0.86749351  0.83243154     0.38120
C1478       C  0.78728004  0.97574292  0.92857188     0.38110
C1479       C  0.79343222  0.91623509  0.96462652     0.36530
C1480       C  0.72034651  0.92744490  0.80579927     0.36530
N1481       N  0.80886959  0.91475306  0.99631939    -0.38290
N1482       N  0.70412694  0.92941377  0.77492210    -0.38290
N1483       N  0.79952895  0.49701415  0.94726501    -0.37730
N1484       N  0.73154519  0.84622230  0.80826449    -0.37740
C1485       C  0.87549821  0.77739857  0.08341465    -0.04400
C1486       C  0.88498595  0.79756293  0.11983651    -0.01520
C1487       C  0.91425627  0.79308209  0.14111314     0.03470
C1488       C  0.93264235  0.76643129  0.12933050    -0.04400
C1489       C  0.92321448  0.74641437  0.09247832    -0.01510
C1490       C  0.89531552  0.75251729  0.06877753     0.03470
C1491       C  0.86334774  0.82076725  0.13842294     0.38120
C1492       C  0.94128890  0.71859264  0.08021743     0.38110
C1493       C  0.88626466  0.73237986  0.03016523     0.36530
C1494       C  0.92580242  0.81644743  0.17419739     0.36530
N1495       N  0.87900205  0.71641951  0.99933507    -0.38290
N1496       N  0.93521628  0.83562588  0.19972058    -0.38290
N1497       N  0.95569700  0.69637251  0.07058679    -0.37730
N1498       N  0.84580576  0.83860910  0.15431024    -0.37740
C1499       C  0.60999265  0.75522220  0.10040817    -0.04400
C1500       C  0.59075031  0.78228124  0.10465805    -0.01520
C1501       C  0.56084088  0.78066521  0.12445016     0.03470
C1502       C  0.54946838  0.75203681  0.13970401    -0.04400
C1503       C  0.56848005  0.72507634  0.13609983    -0.01510
C1504       C  0.59865706  0.72662945  0.11675829     0.03470
C1505       C  0.60074258  0.81202317  0.08801314     0.38120
C1506       C  0.55682856  0.69562874  0.15207245     0.38110
C1507       C  0.61834678  0.69893729  0.11525460     0.36530
C1508       C  0.54188678  0.80883229  0.13003209     0.36530
N1509       N  0.63400340  0.67682602  0.11417544    -0.38290
N1510       N  0.52674044  0.83119952  0.13451972    -0.38290
N1511       N  0.54748715  0.67219387  0.16492050    -0.37730
N1512       N  0.60715319  0.83645907  0.07551766    -0.37740
C1513       C  0.86930981  0.77463476  0.90191390    -0.04400
C1514       C  0.89634002  0.78833410  0.92328448    -0.01520
C1515       C  0.92640271  0.78514111  0.90356151     0.03470
C1516       C  0.93012105  0.76779487  0.86228379    -0.04400
C1517       C  0.90308425  0.75329501  0.84176776    -0.01510
C1518       C  0.87291861  0.75803127  0.86013107     0.03470
C1519       C  0.89371605  0.80563989  0.96601057     0.38120
C1520       C  0.90620643  0.73193935  0.80274786     0.38110
C1521       C  0.84546689  0.74666479  0.83463181     0.36530
C1522       C  0.95322786  0.79954077  0.92708290     0.36530
N1523       N  0.82368848  0.73777047  0.81399949    -0.38290
N1524       N  0.97372285  0.81088910  0.94807154    -0.38290
N1525       N  0.90861458  0.71484120  0.77175284    -0.37730
N1526       N  0.89228903  0.81986299  0.99981175    -0.37740
C1527       C  0.60702377  0.74837863  0.90946612    -0.04400
C1528       C  0.58595900  0.77299364  0.92040305    -0.01520
C1529       C  0.55770684  0.77568211  0.89626028     0.03470
C1530       C  0.54832286  0.75184663  0.86439830    -0.04400
C1531       C  0.56928850  0.72699760  0.85345057    -0.01510
C1532       C  0.59920458  0.72620420  0.87449119     0.03470
C1533       C  0.59433963  0.79704437  0.95450482     0.38120
C1534       C  0.56084923  0.70322225  0.81896280     0.38110
C1535       C  0.62326924  0.70543678  0.85630890     0.36530
C1536       C  0.54079838  0.80512950  0.89968053     0.36530
N1537       N  0.64282655  0.68980640  0.84060030    -0.38290
N1538       N  0.52840520  0.82921870  0.90126905    -0.38290
N1539       N  0.55422841  0.68436380  0.79122381    -0.37730
N1540       N  0.60096105  0.81658328  0.98119500    -0.37740
C1541       C  0.72859705  0.58123890  0.13753637    -0.04400
C1542       C  0.74127047  0.60903736  0.15908315    -0.01520
C1543       C  0.73408471  0.63870157  0.14346110     0.03470
C1544       C  0.71842586  0.64135043  0.10207975    -0.04400
C1545       C  0.70526141  0.61382292  0.08059556    -0.01510
C1546       C  0.70958865  0.58411382  0.09883333     0.03470
C1547       C  0.76355258  0.60750827  0.19588648     0.38120
C1548       C  0.68741679  0.61563002  0.03948696     0.38110
C1549       C  0.69440981  0.55671930  0.07710651     0.36530
C1550       C  0.74193386  0.66656312  0.17140105     0.36530
N1551       N  0.68221586  0.53529357  0.05871984    -0.38290
N1552       N  0.74780445  0.68830385  0.19480782    -0.38290
N1553       N  0.67275857  0.61659205  0.00696018    -0.37730
N1554       N  0.78139176  0.60645796  0.22511442    -0.37740
C1555       C  0.75978218  0.90417467  0.07932742    -0.04400
C1556       C  0.78698335  0.91895138  0.09886089    -0.01520
C1557       C  0.78506910  0.94957335  0.11939501     0.03470
C1558       C  0.75600544  0.96550099  0.12077840    -0.04400
C1559       C  0.72936961  0.95140796  0.09929356    -0.01510
C1560       C  0.73167110  0.92170539  0.07685776     0.03470
C1561       C  0.81698522  0.90302251  0.09772702     0.38120
C1562       C  0.69873756  0.96606829  0.10371471     0.38110
C1563       C  0.70516776  0.90973280  0.04994703     0.36530
C1564       C  0.81276645  0.96437907  0.14030153     0.36530
N1565       N  0.68409164  0.90069421  0.02798486    -0.38290
N1566       N  0.83485749  0.97617037  0.15705518    -0.38290
N1567       N  0.67412300  0.97721898  0.10808470    -0.37730
N1568       N  0.84128182  0.89095733  0.09583659    -0.37740
C1569       C  0.00616850  0.82155760  0.62820289    -0.04400
C1570       C  0.53332596  0.84059791  0.63674688    -0.01520
C1571       C  0.53699713  0.86916415  0.61546865     0.03470
C1572       C  0.51391345  0.87831106  0.58487858    -0.04400
C1573       C  0.98840049  0.85784736  0.57330151    -0.01510
C1574       C  0.98395000  0.83012548  0.59583415     0.03470
C1575       C  0.55749813  0.83074440  0.66728151     0.38120
C1576       C  0.96691469  0.86506755  0.53745858     0.38110
C1577       C  0.95566639  0.81122965  0.58699785     0.36530
C1578       C  0.56394285  0.88951254  0.62594459     0.36530
N1579       N  0.93311398  0.79618926  0.58002315    -0.38290
N1580       N  0.58547299  0.90575882  0.63416917    -0.38290
N1581       N  0.94998887  0.87039872  0.50848036    -0.37730
N1582       N  0.57674541  0.82276664  0.69162924    -0.37740
C1583       C  0.98812087  0.70544532  0.62559351    -0.04400
C1584       C  0.95892750  0.68918590  0.62342723    -0.01520
C1585       C  0.95646016  0.65937432  0.60080225     0.03470
C1586       C  0.98359634  0.64505817  0.58211136    -0.04400
C1587       C  0.51200588  0.66275055  0.58078176    -0.01510
C1588       C  0.51438095  0.69257885  0.60300254     0.03470
C1589       C  0.93137768  0.70321606  0.64439057     0.38120
C1590       C  0.53845829  0.65097176  0.55468457     0.38110
C1591       C  0.54421731  0.70961386  0.60373575     0.36530
C1592       C  0.92583371  0.64417444  0.59577817     0.36530
N1593       N  0.56796147  0.72325427  0.60429929    -0.38290
N1594       N  0.90109886  0.63278529  0.59068067    -0.38290
N1595       N  0.55942789  0.64181741  0.53347985    -0.37730
N1596       N  0.90942826  0.71435526  0.66122174    -0.37740
C1597       C  0.00102874  0.81453469  0.36724856    -0.04400
C1598       C  0.52281123  0.81906639  0.40317686    -0.01600
C1599       C  0.52931686  0.84982026  0.42186030     0.03470
C1600       C  0.51700955  0.87638291  0.40136008    -0.04400
C1601       C  0.99894528  0.87131962  0.36173658    -0.01510
C1602       C  0.98780391  0.84120823  0.34877510     0.03470
C1603       C  0.53854051  0.79235908  0.42099270     0.38120
C1604       C  0.99216942  0.89688999  0.33314974     0.38110
C1605       C  0.96075025  0.83808983  0.31891422     0.36530
C1606       C  0.54806002  0.85370899  0.46236054     0.36530
N1607       N  0.93866818  0.83560949  0.29611611    -0.38290
N1608       N  0.56302409  0.85652793  0.49474182    -0.38290
N1609       N  0.98708400  0.91688345  0.30960894    -0.37730
N1610       N  0.55111678  0.77103755  0.43519680    -0.37740
C1611       C  0.97852257  0.69848061  0.37211775    -0.04400
C1612       C  0.95180695  0.68635770  0.39293384    -0.01520
C1613       C  0.95353137  0.65764777  0.41464068     0.03470
C1614       C  0.98199633  0.63996940  0.41409222    -0.04400
C1615       C  0.50928234  0.65393725  0.39517086    -0.01510
C1616       C  0.50730430  0.68267858  0.37434430     0.03470
C1617       C  0.92243818  0.70342844  0.39158622     0.38120
C1618       C  0.54031604  0.64014064  0.39745625     0.38110
C1619       C  0.53528176  0.69630361  0.35484025     0.36530
C1620       C  0.92599381  0.64733596  0.43834253     0.36530
N1621       N  0.55742931  0.70724315  0.33930952    -0.38290
N1622       N  0.90401446  0.63959962  0.45771336    -0.38290
N1623       N  0.56575766  0.63065600  0.39785495    -0.37730
N1624       N  0.89901174  0.71705745  0.39039554    -0.37740
C1625       C  0.62810395  0.99569985  0.60091862    -0.04400
C1626       C  0.63201312  0.01161603  0.64316450    -0.01520
C1627       C  0.66225107  0.51980695  0.65973920     0.03470
C1628       C  0.68961793  0.50778229  0.63833193    -0.04400
C1629       C  0.68572937  0.49004276  0.59716566    -0.01510
C1630       C  0.65525254  0.98446808  0.57835307     0.03470
C1631       C  0.60491410  0.01858270  0.67107230     0.38120
C1632       C  0.71268805  0.47799627  0.57271439     0.38110
C1633       C  0.65223328  0.96728765  0.53548875     0.36530
C1634       C  0.66483934  0.54231862  0.69771999     0.36530
N1635       N  0.65033163  0.95329335  0.50147866    -0.38290
N1636       N  0.66678510  0.56030634  0.72788749    -0.38290
N1637       N  0.73338675  0.46856782  0.55123148    -0.37730
N1638       N  0.58365700  0.02381761  0.69406727    -0.37740
C1639       C  0.80829928  0.52616112  0.63873540    -0.04400
C1640       C  0.81692329  0.50085932  0.60927229    -0.01520
C1641       C  0.84542778  0.50191902  0.58584322     0.03470
C1642       C  0.86732541  0.52668136  0.59491039    -0.04400
C1643       C  0.86023623  0.55035636  0.62784421    -0.01510
C1644       C  0.83022591  0.55097463  0.64812157     0.03470
C1645       C  0.79849971  0.97191831  0.60720573     0.38120
C1646       C  0.88504040  0.57136608  0.64508474     0.38110
C1647       C  0.82249715  0.57643531  0.67996493     0.36530
C1648       C  0.85290293  0.97628275  0.55420423     0.36530
N1649       N  0.81640009  0.59669259  0.70553052    -0.38290
N1650       N  0.85863269  0.95539635  0.52959405    -0.38290
N1651       N  0.90511537  0.58724700  0.66023178    -0.37730
N1652       N  0.78465689  0.94836128  0.60659174    -0.37740
C1653       C  0.68823635  0.50108702  0.36620829    -0.04400
C1654       C  0.68093908  0.51965115  0.40518897    -0.01520
C1655       C  0.65251614  0.01458495  0.42772060     0.03470
C1656       C  0.63036253  0.99209067  0.41047542    -0.04400
C1657       C  0.63779375  0.97283955  0.37258924    -0.01510
C1658       C  0.66691832  0.47684636  0.35098770     0.03470
C1659       C  0.70167025  0.54526388  0.42096490     0.38120
C1660       C  0.61492104  0.94980398  0.35489913     0.38110
C1661       C  0.67478931  0.45602410  0.31302051     0.36530
C1662       C  0.64576814  0.03296372  0.46857345     0.36530
N1663       N  0.68104307  0.43951338  0.28261308    -0.38290
N1664       N  0.64060976  0.04742061  0.50135307    -0.38290
N1665       N  0.59656709  0.93153359  0.34076290    -0.37730
N1666       N  0.71817368  0.56568091  0.43362415    -0.37740
C1667       C  0.86630912  0.51805441  0.40440358    -0.04400
C1668       C  0.84740800  0.99028094  0.40260670    -0.01520
C1669       C  0.81764387  0.98958407  0.38133969     0.03470
C1670       C  0.80603706  0.51660343  0.36197043    -0.04400
C1671       C  0.82472006  0.54431808  0.36349943    -0.01510
C1672       C  0.85490164  0.54488062  0.38392241     0.03470
C1673       C  0.85836411  0.96181007  0.42178079     0.38120
C1674       C  0.81285415  0.57237979  0.34411162     0.38110
C1675       C  0.87512460  0.57224258  0.38050184     0.36530
C1676       C  0.79936452  0.96051085  0.37797787     0.36530
N1677       N  0.89138207  0.59388106  0.37677814    -0.38290
N1678       N  0.78479418  0.93736949  0.37525737    -0.38290
N1679       N  0.80340357  0.59478720  0.32869108    -0.37730
N1680       N  0.86631159  0.93844694  0.43601850    -0.37740
loop_ 
_geom_bond_atom_site_label_1 
_geom_bond_atom_site_label_2 
_geom_bond_distance 
_geom_bond_site_symmetry_2 
_ccdc_geom_bond_type 
O1          Zr13   2.422       .  S
O1          C423   1.284       .  A
O2          Zr39   2.453       .  S
O2            C3   1.293       .  A
C3          O421   1.284   1_545  A
C3          C407   1.496       .  S
O4          Zr16   2.429       .  S
O4          C846   1.285       .  A
O5          Zr40   2.434       .  S
O5            C6   1.288       .  A
C6          O844   1.285   1_455  A
C6          C312   1.478       .  S
O7          Zr16   2.424       .  S
O7          C429   1.285       .  A
O8          Zr39   2.450       .  S
O8            C9   1.291       .  A
C9          O427   1.285       .  A
C9          C382   1.485       .  S
O10         Zr13   2.413       .  S
O10         C852   1.283       .  A
O11         Zr40   2.449       .  S
O11          C12   1.289       .  A
C12         O850   1.283   1_455  A
C12         C340   1.499       .  S
Zr13         O14   2.431       .  S
Zr13         O15   2.437       .  S
Zr13         O19   2.367       .  S
Zr13         O20   2.363       .  S
Zr13        O883   2.365       .  S
Zr13        O465   2.363       .  S
O14          H57   0.990       .  S
O15          H56   0.989       .  S
O15          H60   0.990       .  S
Zr16         O17   2.435       .  S
Zr16         O18   2.434       .  S
Zr16         O20   2.365       .  S
Zr16         O19   2.373       .  S
Zr16        O464   2.368       .  S
Zr16        O886   2.370       .  S
O17          H58   0.989       .  S
O17          H61   0.990       .  S
O18          H51   0.990       .  S
O19        Zr459   2.381       .  S
O20        Zr880   2.391       .  S
O20          H47   0.965       .  S
O21         Zr33   2.427       .  S
O21         C443   1.284   1_545  A
O22         Zr40   2.441       .  S
O22          C23   1.289       .  A
C23         O441   1.284       .  A
C23         C396   1.478       .  S
O24         Zr36   2.436       .  S
O24         C866   1.288   1_455  A
O25         Zr39   2.421       .  S
O25          C26   1.286       .  A
C26         O864   1.288       .  A
C26         C326   1.488       .  S
O27         Zr36   2.429       .  S
O27         C449   1.286   1_545  A
O28         Zr40   2.447       .  S
O28          C29   1.290       .  A
C29         O447   1.286       .  A
C29         C365   1.499       .  S
O30         Zr33   2.434       .  S
O30         C872   1.287   1_455  A
O31         Zr39   2.451       .  S
O31          C32   1.292       .  A
C32         O870   1.287       .  A
C32         C354   1.520       .  S
Zr33         O34   2.436       .  S
Zr33         O35   2.434       .  S
Zr33         O41   2.363       .  S
Zr33         O42   2.355       .  S
Zr33        O885   2.373   1_455  S
Zr33        O463   2.373   1_545  S
O34          H54   0.989       .  S
O34          H59   0.990       .  S
O35          H55   0.990       .  S
Zr36         O37   2.434       .  S
Zr36         O38   2.432       .  S
Zr36         O42   2.359       .  S
Zr36         O41   2.370       .  S
Zr36        O466   2.369   1_545  S
Zr36        O884   2.362   1_455  S
O37          H53   0.990       .  S
O38          H52   0.990       .  S
O38          H62   0.990       .  S
Zr39         O44   2.397       .  S
Zr39         O45   2.388       .  S
Zr39        O439   2.381   1_545  S
Zr39        O882   2.380       .  S
Zr40         O43   2.396       .  S
Zr40         O46   2.399       .  S
Zr40        O860   2.391   1_455  S
Zr40        O461   2.386       .  S
O41        Zr460   2.386   1_545  S
O41          H49   0.965       .  S
O42        Zr879   2.380   1_455  S
O43        Zr853   2.365   1_455  S
O43        Zr453   2.373       .  S
O44        Zr436   2.368   1_545  S
O44        Zr876   2.362       .  S
O44          H48   0.966       .  S
O45        Zr433   2.363   1_545  S
O45        Zr873   2.373       .  S
O45          H50   0.966       .  S
O46        Zr856   2.370   1_455  S
O46        Zr456   2.369       .  S
C63         C351   1.485       .  S
C63          C64   1.408       .  A
C63          C68   1.406       .  A
C64          C65   1.408       .  A
C64          H69   1.083       .  S
C65         C337   1.499       .  S
C65          C66   1.405       .  A
C66          C67   1.395       .  A
C66          H70   1.085       .  S
C67         C172   1.471       .  S
C67          C68   1.398       .  A
C68          H71   1.084       .  S
C72         C393   1.497       .  S
C72          C73   1.407       .  A
C72          C77   1.406       .  A
C73          C74   1.405       .  A
C73          H78   1.084       .  S
C74         C410   1.491       .  S
C74          C75   1.401       .  A
C75          C76   1.401       .  A
C75          H79   1.084       .  S
C76         C101   1.470       .  S
C76          C77   1.400       .  A
C77          H80   1.084       .  S
C81         C368   1.511       .  S
C81          C82   1.412       .  A
C81          C86   1.407       .  A
C82          C83   1.414       .  A
C82          H87   1.082       .  S
C83         C379   1.492       .  S
C83          C84   1.403       .  A
C84          C85   1.395       .  A
C84          H88   1.084       .  S
C85         C181   1.467       .  S
C85          C86   1.395       .  A
C86          H89   1.084   1_545  S
C90         C323   1.483       .  S
C90          C91   1.399       .  A
C90          C95   1.399       .  A
C91          C92   1.403       .  A
C91          H96   1.084       .  S
C92         C309   1.487       .  S
C92          C93   1.406       .  A
C93          C94   1.401       .  A
C93          H97   1.084       .  S
C94         C190   1.467       .  S
C94          C95   1.400       .  A
C95          H98   1.084       .  S
C99         C298   1.489       .  S
C99         C100   1.398       .  A
C99         C524   1.409       .  A
C100        C521   1.396       .  A
C100        H105   1.084       .  S
C101        C102   1.399       .  A
C101        C520   1.396   1_545  A
C102        C103   1.411       .  A
C102        H106   1.083       .  S
C103        C281   1.509       .  S
C103        C104   1.414       .  A
C104        C519   1.409   1_545  A
C104        H107   1.082       .  S
O108       Zr120   2.432       .  S
O108        C110   1.287       .  A
O109       Zr146   2.450       .  S
O109        C110   1.291       .  A
C110        C211   1.501       .  S
O111       Zr123   2.453       .  S
O111        C113   1.289       .  A
O112       Zr147   2.431       .  S
O112        C113   1.289       .  A
C113        C239   1.495       .  S
O114       Zr123   2.442       .  S
O114        C116   1.288       .  A
O115       Zr146   2.438   1_554  S
O115        C116   1.288       .  A
C116        C295   1.497       .  S
O117       Zr120   2.415       .  S
O117        C119   1.283       .  A
O118       Zr147   2.450   1_556  S
O118        C119   1.291       .  A
C119        C267   1.480       .  S
Zr120       O121   2.434       .  S
Zr120       O122   2.430       .  S
Zr120       O126   2.359   1_556  S
Zr120       O127   2.368   1_556  S
Zr120       O150   2.371       .  S
Zr120       O152   2.368       .  S
O121        H164   0.990       .  S
O122        H163   0.989       .  S
O122        H167   0.990       .  S
Zr123       O124   2.431       .  S
Zr123       O125   2.433       .  S
Zr123       O127   2.377       .  S
Zr123       O126   2.368       .  S
Zr123       O151   2.368       .  S
Zr123       O153   2.369       .  S
O124        H165   0.988       .  S
O124        H168   0.990       .  S
O125        H158   0.990       .  S
O126       Zr146   2.383   1_554  S
O127       Zr147   2.401       .  S
O127        H154   0.965       .  S
O128       Zr140   2.438       .  S
O128        C130   1.287       .  A
O129       Zr147   2.450   1_556  S
O129        C130   1.290       .  A
C130        C197   1.492       .  S
O131       Zr143   2.402       .  S
O131        C133   1.280       .  A
O132       Zr146   2.455   1_554  S
O132        C133   1.292       .  A
C133        C225   1.479       .  S
O134       Zr143   2.427       .  S
O134        C136   1.286       .  A
O135       Zr147   2.453       .  S
O135        C136   1.292       .  A
C136        C284   1.502       .  S
O137       Zr140   2.429       .  S
O137        C139   1.285       .  A
O138       Zr146   2.436       .  S
O138        C139   1.289       .  A
C139        C253   1.499       .  S
Zr140       O141   2.439       .  S
Zr140       O142   2.433       .  S
Zr140       O148   2.370   1_556  S
Zr140       O149   2.367       .  S
Zr140       O152   2.366       .  S
Zr140       O150   2.363       .  S
O141        H161   0.989       .  S
O141        H166   0.990       .  S
O142        H162   0.990       .  S
Zr143       O144   2.434       .  S
Zr143       O145   2.431       .  S
Zr143       O149   2.368   1_554  S
Zr143       O148   2.354       .  S
Zr143       O153   2.364       .  S
Zr143       O151   2.369       .  S
O144        H160   0.990       .  S
O145        H159   0.989       .  S
O145        H169   0.990       .  S
Zr146       O149   2.383       .  S
Zr146       O151   2.399   1_556  S
Zr146       O152   2.394       .  S
Zr147       O148   2.391       .  S
Zr147       O150   2.391   1_554  S
Zr147       O153   2.397       .  S
O148        H156   0.964       .  S
O151        H155   0.966       .  S
O152        H157   0.966       .  S
C170        C228   1.494       .  S
C170        C171   1.408       .  A
C170        C175   1.403       .  A
C171        C172   1.404       .  A
C171        H176   1.084       .  S
C172       C1013   1.399       .  A
C173        C174   1.399       .  A
C173       C1012   1.399   1_455  A
C173        H177   1.084       .  S
C174        C242   1.484       .  S
C174       C1015   1.403   1_455  A
C175       C1014   1.403       .  A
C175        H178   1.084       .  S
C179        C214   1.500       .  S
C179        C180   1.407       .  A
C179        C604   1.411       .  A
C180        C601   1.395       .  A
C180        H185   1.084       .  S
C181        C182   1.399       .  A
C181        C600   1.395   1_545  A
C182        C183   1.400       .  A
C182        H186   1.084       .  S
C183        C200   1.488       .  S
C183        C184   1.408       .  A
C184        C599   1.411   1_545  A
C184        H187   1.083       .  S
C188        C256   1.507       .  S
C188        C189   1.411       .  A
C188        C193   1.411       .  A
C189        C190   1.399       .  A
C189        H194   1.083       .  S
C190       C1031   1.395       .  A
C191        C192   1.398       .  A
C191       C1030   1.395   1_455  A
C191        H195   1.084       .  S
C192        C270   1.489       .  S
C192       C1033   1.409   1_455  A
C193       C1032   1.409       .  A
C193        H196   1.082       .  S
C197        C198   1.416       .  A
C197        C202   1.413       .  A
C198        C199   1.405       .  A
C198        C203   1.452       .  S
C199        C200   1.409       .  A
C199        C206   1.451       .  S
C200        C201   1.414       .  A
C201        C202   1.418       .  A
C201        C204   1.449       .  S
C202        C205   1.447       .  S
C203        N210   1.157       .  T
C204        N209   1.157       .  T
C205        N207   1.157       .  T
C206        N208   1.157       .  T
C211        C212   1.416       .  A
C211        C216   1.417       .  A
C212        C213   1.407       .  A
C212        C217   1.450       .  S
C213        C214   1.416       .  A
C213        C220   1.454       .  S
C214        C215   1.417       .  A
C215        C216   1.417       .  A
C215        C218   1.450       .  S
C216        C219   1.447       .  S
C217        N224   1.157       .  T
C218        N643   1.157       .  T
C219        N221   1.156       .  T
C220        N222   1.158       .  T
N223        C638   1.157       .  T
C225        C226   1.408       .  A
C225        C230   1.414       .  A
C226        C227   1.411       .  A
C226        C231   1.449       .  S
C227        C228   1.415       .  A
C227        C234   1.448       .  S
C228        C229   1.414       .  A
C229        C230   1.410       .  A
C229        C232   1.451       .  S
C230        C233   1.452       .  S
C231        N238   1.157       .  T
C232        N237   1.157       .  T
C233        N235   1.157   1_554  T
C234        N236   1.156       .  T
C239        C240   1.420       .  A
C239        C244   1.419       .  A
C240        C241   1.408       .  A
C240        C245   1.448       .  S
C241        C242   1.408       .  A
C241        C248   1.455       .  S
C242        C243   1.410       .  A
C243        C244   1.413       .  A
C243        C246   1.451       .  S
C244        C247   1.452       .  S
C245        N252   1.156       .  T
C246        N251   1.157       .  T
C247        N249   1.157       .  T
C248        N250   1.157       .  T
C253        C254   1.415       .  A
C253        C258   1.418       .  A
C254        C255   1.415       .  A
C254        C259   1.452       .  S
C255        C256   1.420       .  A
C255        C262   1.448       .  S
C256        C257   1.418       .  A
C257        C258   1.410       .  A
C257        C260   1.453       .  S
C258        C261   1.453       .  S
C259        N266   1.157       .  T
C260        N265   1.157       .  T
C261        N263   1.157       .  T
C262        N264   1.156       .  T
C267        C268   1.412       .  A
C267        C272   1.410       .  A
C268        C269   1.404       .  A
C268        C273   1.450       .  S
C269        C270   1.410       .  A
C269        C276   1.451       .  S
C270        C271   1.417       .  A
C271        C272   1.414       .  A
C271        C274   1.450       .  S
C272        C275   1.449       .  S
C273        N280   1.156       .  T
C274        N279   1.157       .  T
C275        N277   1.157       .  T
C276        N278   1.157       .  T
C281        C282   1.418       .  A
C281        C286   1.421       .  A
C282        C283   1.407       .  A
C282        C287   1.453       .  S
C283        C284   1.415       .  A
C283        C290   1.451       .  S
C284        C285   1.416       .  A
C285        C286   1.419       .  A
C285        C288   1.449       .  S
C286        C289   1.449       .  S
C287        N294   1.157       .  T
C288        N293   1.157       .  T
C289        N291   1.157       .  T
C290        N292   1.157       .  T
C295        C296   1.417       .  A
C295        C300   1.417       .  A
C296        C297   1.417       .  A
C296        C301   1.448       .  S
C297        C298   1.413       .  A
C297        C304   1.450       .  S
C298        C299   1.409       .  A
C299        C300   1.407       .  A
C299        C302   1.451       .  S
C300        C303   1.452       .  S
C301        N308   1.157       .  T
C302        N307   1.157       .  T
C303        N305   1.157       .  T
C304        N306   1.157       .  T
C309        C314   1.413       .  A
C309       C1150   1.416       .  A
C310        C311   1.413       .  A
C310       C1149   1.416       .  A
C310        C315   1.450       .  S
C311        C312   1.409       .  A
C311        C318   1.450       .  S
C312       C1153   1.412   1_455  A
C313        C314   1.405       .  A
C313       C1152   1.412       .  A
C313        C316   1.452       .  S
C314        C317   1.453       .  S
C315        N322   1.157       .  T
C316        N321   1.157       .  T
C317        N319   1.157       .  T
C318        N320   1.157       .  T
C323        C324   1.412       .  A
C323       C1168   1.410       .  A
C324        C325   1.411       .  A
C324        C329   1.451       .  S
C325        C326   1.415       .  A
C325        C332   1.449       .  S
C326       C1167   1.417       .  A
C327        C328   1.406       .  A
C327       C1166   1.417   1_455  A
C327        C330   1.453       .  S
C328       C1163   1.410   1_455  A
C328        C331   1.452       .  S
C329        N336   1.157       .  T
C330        N335   1.157       .  T
C331        N333   1.157       .  T
C332        N334   1.157       .  T
C337        C342   1.411       .  A
C337       C1178   1.419       .  A
C338        C339   1.421       .  A
C338       C1177   1.419       .  A
C338        C343   1.450       .  S
C339        C340   1.419       .  A
C339        C346   1.449       .  S
C340       C1181   1.416   1_455  A
C341        C342   1.398       .  A
C341       C1180   1.416       .  A
C341        C344   1.453       .  S
C342        C345   1.451       .  S
C343        N350   1.157       .  T
C344        N349   1.157       .  T
C345        N347   1.156       .  T
C346        N348   1.157       .  T
C351        C352   1.406       .  A
C351       C1196   1.403       .  A
C352        C353   1.419       .  A
C352        C357   1.450       .  S
C353        C354   1.429       .  A
C353        C360   1.450       .  S
C354       C1195   1.432       .  A
C355        C356   1.408       .  A
C355       C1194   1.432   1_455  A
C355        C358   1.450       .  S
C356       C1191   1.403   1_455  A
C356        C359   1.457       .  S
C357        N364   1.157       .  T
C358        N363   1.156       .  T
C359        N361   1.157       .  T
C360        N362   1.158       .  T
C365        C366   1.415       .  A
C365        C370   1.416       .  A
C366        C787   1.406       .  A
C366        C371   1.452       .  S
C367        C368   1.419       .  A
C367        C786   1.406       .  A
C367        C374   1.454       .  S
C368        C369   1.422   1_545  A
C369        C790   1.419       .  A
C369        C372   1.448       .  S
C370        C789   1.419       .  A
C370        C373   1.451       .  S
C371        N378   1.157       .  T
C372        N377   1.157       .  T
C373        N375   1.157       .  T
C374        N376   1.157       .  T
C379        C380   1.411       .  A
C379        C384   1.417       .  A
C380        C381   1.406       .  A
C380        C805   1.452   1_545  S
C381        C382   1.413       .  A
C381        C808   1.449   1_545  S
C382        C383   1.412       .  A
C383        C384   1.416       .  A
C383        C386   1.449       .  S
C384        C387   1.450       .  S
C385        C800   1.452       .  S
C385        N392   1.157       .  T
C386        N391   1.157       .  T
C387        N389   1.157       .  T
C388        C801   1.449       .  S
C388        N390   1.156       .  T
C393        C394   1.416       .  A
C393        C398   1.420   1_545  A
C394        C815   1.408       .  A
C394        C399   1.452       .  S
C395        C396   1.411       .  A
C395        C814   1.408       .  A
C395        C402   1.453       .  S
C396        C397   1.407       .  A
C397        C818   1.413       .  A
C397        C400   1.450       .  S
C398        C817   1.413       .  A
C398        C401   1.451       .  S
C399        N406   1.157       .  T
C400        N405   1.157       .  T
C401        N403   1.157       .  T
C402        N404   1.157       .  T
C407        C412   1.415       .  A
C407        C828   1.421   1_545  A
C408        C409   1.409       .  A
C408        C827   1.421       .  A
C408        C413   1.450       .  S
C409        C830   1.409       .  A
C409        C416   1.453       .  S
C410        C411   1.414       .  A
C410        C829   1.409   1_545  A
C411        C412   1.414       .  A
C411        C414   1.451       .  S
C412        C415   1.449       .  S
C413        N420   1.157       .  T
C414        N419   1.157       .  T
C415        N417   1.157       .  T
C416        N418   1.157       .  T
O421       Zr433   2.422       .  S
O422       Zr459   2.453       .  S
O422        C423   1.293       .  A
C423        C827   1.496       .  S
O424       Zr436   2.429       .  S
O424       C1266   1.285       .  A
O425       Zr460   2.434       .  S
O425        C426   1.288       .  A
C426       O1264   1.285   1_455  A
C426        C732   1.478       .  S
O427       Zr436   2.424   1_545  S
O428       Zr459   2.450       .  S
O428        C429   1.291       .  A
C429        C802   1.485       .  S
O430       Zr433   2.413       .  S
O430       C1272   1.283       .  A
O431       Zr460   2.449       .  S
O431        C432   1.289       .  A
C432       O1270   1.283   1_455  A
C432        C760   1.499       .  S
Zr433       O434   2.431       .  S
Zr433       O435   2.437       .  S
Zr433       O439   2.367       .  S
Zr433       O440   2.363       .  S
Zr433      O1303   2.365       .  S
O434        H477   0.990       .  S
O435        H476   0.989   1_565  S
O435        H480   0.990       .  S
Zr436       O437   2.435       .  S
Zr436       O438   2.434       .  S
Zr436       O440   2.365       .  S
Zr436       O439   2.373       .  S
Zr436      O1306   2.370       .  S
O437        H478   0.989       .  S
O437        H481   0.990       .  S
O438        H471   0.990       .  S
O440      Zr1300   2.391       .  S
O440        H467   0.965       .  S
O441       Zr453   2.427       .  S
O442       Zr460   2.441       .  S
O442        C443   1.289       .  A
C443        C816   1.478       .  S
O444       Zr456   2.436       .  S
O444       C1286   1.288   1_455  A
O445       Zr459   2.421       .  S
O445        C446   1.286       .  A
C446       O1284   1.288       .  A
C446        C746   1.488       .  S
O447       Zr456   2.429       .  S
O448       Zr460   2.447       .  S
O448        C449   1.290       .  A
C449        C785   1.499       .  S
O450       Zr453   2.434       .  S
O450       C1292   1.287   1_455  A
O451       Zr459   2.451       .  S
O451        C452   1.292       .  A
C452       O1290   1.287       .  A
C452        C774   1.520       .  S
Zr453       O454   2.436       .  S
Zr453       O455   2.434       .  S
Zr453       O461   2.363       .  S
Zr453       O462   2.355       .  S
Zr453      O1305   2.373   1_455  S
O454        H474   0.989       .  S
O454        H479   0.990       .  S
O455        H475   0.990       .  S
Zr456       O457   2.434       .  S
Zr456       O458   2.432       .  S
Zr456       O462   2.359       .  S
Zr456       O461   2.370       .  S
Zr456      O1304   2.362   1_455  S
O457        H473   0.990       .  S
O458        H472   0.990       .  S
O458        H482   0.990       .  S
Zr459      O1302   2.380       .  S
Zr459       O464   2.397       .  S
Zr459       O465   2.388       .  S
Zr460      O1280   2.391   1_455  S
Zr460       O463   2.396       .  S
Zr460       O466   2.399       .  S
O461        H469   0.965       .  S
O462      Zr1299   2.380   1_455  S
O463      Zr1273   2.365   1_455  S
O464      Zr1296   2.362       .  S
O464        H468   0.966       .  S
O465      Zr1293   2.373       .  S
O465        H470   0.966       .  S
O466      Zr1276   2.370   1_455  S
C483        C771   1.485       .  S
C483        C484   1.408       .  A
C483        C488   1.406       .  A
C484        C485   1.408       .  A
C484        H489   1.083       .  S
C485        C757   1.499       .  S
C485        C486   1.405       .  A
C486        C487   1.395       .  A
C486        H490   1.085       .  S
C487        C592   1.471       .  S
C487        C488   1.398       .  A
C488        H491   1.084       .  S
C492        C813   1.497       .  S
C492        C493   1.407       .  A
C492        C497   1.406       .  A
C493        C494   1.405       .  A
C493        H498   1.084       .  S
C494        C830   1.491       .  S
C494        C495   1.401       .  A
C495        C496   1.401       .  A
C495        H499   1.084       .  S
C496        C521   1.470       .  S
C496        C497   1.400       .  A
C497        H500   1.084       .  S
C501        C788   1.511       .  S
C501        C502   1.412       .  A
C501        C506   1.407       .  A
C502        C503   1.414       .  A
C502        H507   1.082       .  S
C503        C799   1.492       .  S
C503        C504   1.403       .  A
C504        C505   1.395       .  A
C504        H508   1.084       .  S
C505        C601   1.467       .  S
C505        C506   1.395       .  A
C506        H509   1.084       .  S
C510        C743   1.483       .  S
C510        C511   1.399       .  A
C510        C515   1.399       .  A
C511        C512   1.403       .  A
C511        H516   1.084       .  S
C512        C729   1.487       .  S
C512        C513   1.406       .  A
C513        C514   1.401       .  A
C513        H517   1.084       .  S
C514        C610   1.467       .  S
C514        C515   1.400       .  A
C515        H518   1.084       .  S
C519        C718   1.489       .  S
C519        C520   1.398       .  A
C520        H525   1.084       .  S
C521        C522   1.399       .  A
C522        C523   1.411       .  A
C522        H526   1.083       .  S
C523        C701   1.509       .  S
C523        C524   1.414       .  A
C524        H527   1.082       .  S
O528       Zr540   2.432       .  S
O528        C530   1.287       .  A
O529       Zr566   2.450       .  S
O529        C530   1.291       .  A
C530        C631   1.501       .  S
O531       Zr543   2.453       .  S
O531        C533   1.289       .  A
O532       Zr567   2.431       .  S
O532        C533   1.289       .  A
C533        C659   1.495       .  S
O534       Zr543   2.442       .  S
O534        C536   1.288       .  A
O535       Zr566   2.438   1_554  S
O535        C536   1.288       .  A
C536        C715   1.497       .  S
O537       Zr540   2.415       .  S
O537        C539   1.283       .  A
O538       Zr567   2.450   1_556  S
O538        C539   1.291       .  A
C539        C687   1.480       .  S
Zr540       O541   2.434       .  S
Zr540       O542   2.430       .  S
Zr540       O546   2.359   1_556  S
Zr540       O547   2.368   1_556  S
Zr540       O570   2.371       .  S
Zr540       O572   2.368       .  S
O541        H584   0.990       .  S
O542        H583   0.989       .  S
O542        H587   0.990       .  S
Zr543       O544   2.431       .  S
Zr543       O545   2.433       .  S
Zr543       O547   2.377       .  S
Zr543       O546   2.368       .  S
Zr543       O571   2.368       .  S
Zr543       O573   2.369       .  S
O544        H585   0.988       .  S
O544        H588   0.990       .  S
O545        H578   0.990       .  S
O546       Zr566   2.383   1_554  S
O547       Zr567   2.401       .  S
O547        H574   0.965       .  S
O548       Zr560   2.438       .  S
O548        C550   1.287       .  A
O549       Zr567   2.450   1_556  S
O549        C550   1.290       .  A
C550        C617   1.492       .  S
O551       Zr563   2.402       .  S
O551        C553   1.280       .  A
O552       Zr566   2.455   1_554  S
O552        C553   1.292       .  A
C553        C645   1.479       .  S
O554       Zr563   2.427       .  S
O554        C556   1.286       .  A
O555       Zr567   2.453       .  S
O555        C556   1.292       .  A
C556        C704   1.502       .  S
O557       Zr560   2.429       .  S
O557        C559   1.285       .  A
O558       Zr566   2.436       .  S
O558        C559   1.289       .  A
C559        C673   1.499       .  S
Zr560       O561   2.439       .  S
Zr560       O562   2.433       .  S
Zr560       O568   2.370   1_556  S
Zr560       O569   2.367       .  S
Zr560       O572   2.366       .  S
Zr560       O570   2.363       .  S
O561        H581   0.989       .  S
O561        H586   0.990       .  S
O562        H582   0.990       .  S
Zr563       O564   2.434       .  S
Zr563       O565   2.431       .  S
Zr563       O569   2.368   1_554  S
Zr563       O568   2.354       .  S
Zr563       O573   2.364       .  S
Zr563       O571   2.369       .  S
O564        H580   0.990       .  S
O565        H579   0.989       .  S
O565        H589   0.990       .  S
Zr566       O569   2.383       .  S
Zr566       O571   2.399   1_556  S
Zr566       O572   2.394       .  S
Zr567       O568   2.391       .  S
Zr567       O570   2.391   1_554  S
Zr567       O573   2.397       .  S
O568        H576   0.964       .  S
O571        H575   0.966       .  S
O572        H577   0.966       .  S
C590        C648   1.494       .  S
C590        C591   1.408       .  A
C590        C595   1.403       .  A
C591        C592   1.404       .  A
C591        H596   1.084       .  S
C592       C1433   1.399       .  A
C593       C1432   1.399   1_455  A
C593        C594   1.399       .  A
C593        H597   1.084       .  S
C594        C662   1.484       .  S
C594       C1435   1.403   1_455  A
C595       C1434   1.403       .  A
C595        H598   1.084       .  S
C599        C634   1.500       .  S
C599        C600   1.407       .  A
C600        H605   1.084       .  S
C601        C602   1.399       .  A
C602        C603   1.400       .  A
C602        H606   1.084       .  S
C603        C620   1.488       .  S
C603        C604   1.408       .  A
C604        H607   1.083       .  S
C608        C676   1.507       .  S
C608        C609   1.411       .  A
C608        C613   1.411       .  A
C609        C610   1.399       .  A
C609        H614   1.083       .  S
C610       C1451   1.395       .  A
C611       C1450   1.395   1_455  A
C611        C612   1.398       .  A
C611        H615   1.084       .  S
C612        C690   1.489       .  S
C612       C1453   1.409   1_455  A
C613       C1452   1.409       .  A
C613        H616   1.082       .  S
C617        C618   1.416       .  A
C617        C622   1.413       .  A
C618        C619   1.405       .  A
C618        C623   1.452       .  S
C619        C620   1.409       .  A
C619        C626   1.451       .  S
C620        C621   1.414       .  A
C621        C622   1.418       .  A
C621        C624   1.449       .  S
C622        C625   1.447       .  S
C623        N630   1.157       .  T
C624        N629   1.157       .  T
C625        N627   1.157       .  T
C626        N628   1.157       .  T
C631        C632   1.416       .  A
C631        C636   1.417       .  A
C632        C633   1.407       .  A
C632        C637   1.450       .  S
C633        C634   1.416       .  A
C633        C640   1.454       .  S
C634        C635   1.417       .  A
C635        C636   1.417       .  A
C635        C638   1.450       .  S
C636        C639   1.447       .  S
C637        N644   1.157       .  T
C639        N641   1.156       .  T
C640        N642   1.158       .  T
C645        C646   1.408       .  A
C645        C650   1.414       .  A
C646        C647   1.411       .  A
C646        C651   1.449       .  S
C647        C648   1.415       .  A
C647        C654   1.448       .  S
C648        C649   1.414       .  A
C649        C650   1.410       .  A
C649        C652   1.451       .  S
C650        C653   1.452       .  S
C651        N658   1.157       .  T
C652        N657   1.157       .  T
C653        N655   1.157   1_554  T
C654        N656   1.156       .  T
C659        C660   1.420       .  A
C659        C664   1.419       .  A
C660        C661   1.408       .  A
C660        C665   1.448       .  S
C661        C662   1.408       .  A
C661        C668   1.455       .  S
C662        C663   1.410       .  A
C663        C664   1.413       .  A
C663        C666   1.451       .  S
C664        C667   1.452       .  S
C665        N672   1.156       .  T
C666        N671   1.157       .  T
C667        N669   1.157       .  T
C668        N670   1.157       .  T
C673        C674   1.415       .  A
C673        C678   1.418       .  A
C674        C675   1.415       .  A
C674        C679   1.452       .  S
C675        C676   1.420       .  A
C675        C682   1.448       .  S
C676        C677   1.418       .  A
C677        C678   1.410       .  A
C677        C680   1.453       .  S
C678        C681   1.453       .  S
C679        N686   1.157       .  T
C680        N685   1.157       .  T
C681        N683   1.157       .  T
C682        N684   1.156       .  T
C687        C688   1.412       .  A
C687        C692   1.410       .  A
C688        C689   1.404       .  A
C688        C693   1.450       .  S
C689        C690   1.410       .  A
C689        C696   1.451       .  S
C690        C691   1.417       .  A
C691        C692   1.414       .  A
C691        C694   1.450       .  S
C692        C695   1.449       .  S
C693        N700   1.156       .  T
C694        N699   1.157       .  T
C695        N697   1.157       .  T
C696        N698   1.157       .  T
C701        C702   1.418       .  A
C701        C706   1.421       .  A
C702        C703   1.407       .  A
C702        C707   1.453       .  S
C703        C704   1.415       .  A
C703        C710   1.451       .  S
C704        C705   1.416       .  A
C705        C706   1.419       .  A
C705        C708   1.449       .  S
C706        C709   1.449       .  S
C707        N714   1.157       .  T
C708        N713   1.157       .  T
C709        N711   1.157       .  T
C710        N712   1.157       .  T
C715        C716   1.417       .  A
C715        C720   1.417       .  A
C716        C717   1.417       .  A
C716        C721   1.448       .  S
C717        C718   1.413       .  A
C717        C724   1.450       .  S
C718        C719   1.409       .  A
C719        C720   1.407       .  A
C719        C722   1.451       .  S
C720        C723   1.452       .  S
C721        N728   1.157       .  T
C722        N727   1.157       .  T
C723        N725   1.157       .  T
C724        N726   1.157       .  T
C729       C1570   1.416       .  A
C729        C734   1.413       .  A
C730       C1569   1.416       .  A
C730        C731   1.413       .  A
C730        C735   1.450       .  S
C731        C732   1.409       .  A
C731        C738   1.450       .  S
C732       C1573   1.412   1_455  A
C733       C1572   1.412       .  A
C733        C734   1.405       .  A
C733        C736   1.452       .  S
C734        C737   1.453       .  S
C735        N742   1.157       .  T
C736        N741   1.157       .  T
C737        N739   1.157       .  T
C738        N740   1.157       .  T
C743        C744   1.412       .  A
C743       C1588   1.410       .  A
C744        C745   1.411       .  A
C744        C749   1.451       .  S
C745        C746   1.415       .  A
C745        C752   1.449       .  S
C746       C1587   1.417       .  A
C747       C1586   1.417   1_455  A
C747        C748   1.406       .  A
C747        C750   1.453       .  S
C748       C1583   1.410   1_455  A
C748        C751   1.452       .  S
C749        N756   1.157       .  T
C750        N755   1.157       .  T
C751        N753   1.157       .  T
C752        N754   1.157       .  T
C757       C1598   1.419       .  A
C757        C762   1.411       .  A
C758       C1597   1.419       .  A
C758        C759   1.421       .  A
C758        C763   1.450       .  S
C759        C760   1.419       .  A
C759        C766   1.449       .  S
C760       C1601   1.416   1_455  A
C761       C1600   1.416       .  A
C761        C762   1.398       .  A
C761        C764   1.453       .  S
C762        C765   1.451       .  S
C763        N770   1.157       .  T
C764        N769   1.157       .  T
C765        N767   1.156       .  T
C766        N768   1.157       .  T
C771        C772   1.406       .  A
C771       C1616   1.403       .  A
C772        C773   1.419       .  A
C772        C777   1.450       .  S
C773        C774   1.429       .  A
C773        C780   1.450       .  S
C774       C1615   1.432       .  A
C775       C1614   1.432   1_455  A
C775        C776   1.408       .  A
C775        C778   1.450       .  S
C776       C1611   1.403   1_455  A
C776        C779   1.457       .  S
C777        N784   1.157       .  T
C778        N783   1.156       .  T
C779        N781   1.157       .  T
C780        N782   1.158       .  T
C785        C786   1.415   1_565  A
C785        C790   1.416       .  A
C786        C791   1.452       .  S
C787        C788   1.419       .  A
C787        C794   1.454       .  S
C788        C789   1.422       .  A
C789        C792   1.448       .  S
C790        C793   1.451       .  S
C791        N798   1.157       .  T
C792        N797   1.157       .  T
C793        N795   1.157       .  T
C794        N796   1.157       .  T
C799        C800   1.411       .  A
C799        C804   1.417       .  A
C800        C801   1.406       .  A
C801        C802   1.413       .  A
C802        C803   1.412       .  A
C803        C804   1.416       .  A
C803        C806   1.449       .  S
C804        C807   1.450       .  S
C805        N812   1.157       .  T
C806        N811   1.157       .  T
C807        N809   1.157       .  T
C808        N810   1.156       .  T
C813        C814   1.416       .  A
C813        C818   1.420       .  A
C814        C819   1.452       .  S
C815        C816   1.411   1_545  A
C815        C822   1.453       .  S
C816        C817   1.407       .  A
C817        C820   1.450       .  S
C818        C821   1.451       .  S
C819        N826   1.157       .  T
C820        N825   1.157       .  T
C821        N823   1.157       .  T
C822        N824   1.157       .  T
C827        C832   1.415       .  A
C828        C829   1.409       .  A
C828        C833   1.450       .  S
C829        C836   1.453       .  S
C830        C831   1.414       .  A
C831        C832   1.414       .  A
C831        C834   1.451       .  S
C832        C835   1.449       .  S
C833        N840   1.157       .  T
C834        N839   1.157       .  T
C835        N837   1.157       .  T
C836        N838   1.157       .  T
O841       Zr853   2.422       .  S
O841       C1263   1.284       .  A
O842       Zr879   2.453       .  S
O842        C843   1.293       .  A
C843       O1261   1.284   1_545  A
C843       C1247   1.496       .  S
O844       Zr856   2.429       .  S
O845       Zr880   2.434       .  S
O845        C846   1.288       .  A
C846       C1152   1.478       .  S
O847       Zr856   2.424       .  S
O847       C1269   1.285       .  A
O848       Zr879   2.450       .  S
O848        C849   1.291       .  A
C849       O1267   1.285       .  A
C849       C1222   1.485       .  S
O850       Zr853   2.413       .  S
O851       Zr880   2.449       .  S
O851        C852   1.289       .  A
C852       C1180   1.499       .  S
Zr853       O854   2.431       .  S
Zr853       O855   2.437       .  S
Zr853       O859   2.367       .  S
Zr853       O860   2.363       .  S
Zr853      O1305   2.363       .  S
O854        H897   0.990       .  S
O855        H896   0.989       .  S
O855        H900   0.990       .  S
Zr856       O857   2.435       .  S
Zr856       O858   2.434       .  S
Zr856       O860   2.365       .  S
Zr856       O859   2.373       .  S
Zr856      O1304   2.368       .  S
O857        H898   0.989       .  S
O857        H901   0.990       .  S
O858        H891   0.990       .  S
O859      Zr1299   2.381       .  S
O860        H887   0.965       .  S
O861       Zr873   2.427       .  S
O861       C1283   1.284   1_545  A
O862       Zr880   2.441       .  S
O862        C863   1.289       .  A
C863       O1281   1.284       .  A
C863       C1236   1.478       .  S
O864       Zr876   2.436       .  S
O865       Zr879   2.421       .  S
O865        C866   1.286       .  A
C866       C1166   1.488       .  S
O867       Zr876   2.429       .  S
O867       C1289   1.286   1_545  A
O868       Zr880   2.447       .  S
O868        C869   1.290       .  A
C869       O1287   1.286       .  A
C869       C1205   1.499       .  S
O870       Zr873   2.434       .  S
O871       Zr879   2.451       .  S
O871        C872   1.292       .  A
C872       C1194   1.520       .  S
Zr873       O874   2.436       .  S
Zr873       O875   2.434       .  S
Zr873       O881   2.363       .  S
Zr873       O882   2.355       .  S
Zr873      O1303   2.373   1_545  S
O874        H894   0.989       .  S
O874        H899   0.990       .  S
O875        H895   0.990       .  S
Zr876       O877   2.434       .  S
Zr876       O878   2.432       .  S
Zr876       O882   2.359       .  S
Zr876       O881   2.370       .  S
Zr876      O1306   2.369   1_545  S
O877        H893   0.990       .  S
O878        H892   0.990       .  S
O878        H902   0.990       .  S
Zr879      O1279   2.381   1_545  S
Zr879       O884   2.397       .  S
Zr879       O885   2.388       .  S
Zr880      O1301   2.386       .  S
Zr880       O883   2.396       .  S
Zr880       O886   2.399       .  S
O881      Zr1300   2.386   1_545  S
O881        H889   0.965       .  S
O883      Zr1293   2.373       .  S
O884      Zr1276   2.368   1_545  S
O884        H888   0.966       .  S
O885      Zr1273   2.363   1_545  S
O885        H890   0.966       .  S
O886      Zr1296   2.369       .  S
C903       C1191   1.485       .  S
C903        C904   1.408       .  A
C903        C908   1.406       .  A
C904        C905   1.408       .  A
C904        H909   1.083       .  S
C905       C1177   1.499   1_655  S
C905        C906   1.405       .  A
C906        C907   1.395       .  A
C906        H910   1.085   1_655  S
C907       C1012   1.471       .  S
C907        C908   1.398       .  A
C908        H911   1.084       .  S
C912       C1233   1.497       .  S
C912        C913   1.407       .  A
C912        C917   1.406       .  A
C913        C914   1.405       .  A
C913        H918   1.084       .  S
C914       C1250   1.491       .  S
C914        C915   1.401       .  A
C915        C916   1.401       .  A
C915        H919   1.084       .  S
C916        C941   1.470       .  S
C916        C917   1.400       .  A
C917        H920   1.084       .  S
C921       C1208   1.511       .  S
C921        C922   1.412       .  A
C921        C926   1.407       .  A
C922        C923   1.414       .  A
C922        H927   1.082       .  S
C923       C1219   1.492       .  S
C923        C924   1.403       .  A
C924        C925   1.395       .  A
C924        H928   1.084       .  S
C925       C1021   1.467       .  S
C925        C926   1.395       .  A
C926        H929   1.084   1_545  S
C930       C1163   1.483       .  S
C930        C931   1.399       .  A
C930        C935   1.399       .  A
C931        C932   1.403   1_655  A
C931        H936   1.084       .  S
C932       C1149   1.487       .  S
C932        C933   1.406   1_455  A
C933        C934   1.401       .  A
C933        H937   1.084   1_655  S
C934       C1030   1.467       .  S
C934        C935   1.400       .  A
C935        H938   1.084       .  S
C939       C1138   1.489       .  S
C939        C940   1.398       .  A
C939       C1364   1.409       .  A
C940       C1361   1.396       .  A
C940        H945   1.084       .  S
C941       C1360   1.396   1_545  A
C941        C942   1.399       .  A
C942        C943   1.411       .  A
C942        H946   1.083       .  S
C943       C1121   1.509       .  S
C943        C944   1.414       .  A
C944       C1359   1.409   1_545  A
C944        H947   1.082       .  S
O948       Zr960   2.432       .  S
O948        C950   1.287       .  A
O949       Zr986   2.450       .  S
O949        C950   1.291       .  A
C950       C1051   1.501       .  S
O951       Zr963   2.453       .  S
O951        C953   1.289       .  A
O952       Zr987   2.431       .  S
O952        C953   1.289       .  A
C953       C1079   1.495       .  S
O954       Zr963   2.442       .  S
O954        C956   1.288       .  A
O955       Zr986   2.438   1_554  S
O955        C956   1.288       .  A
C956       C1135   1.497       .  S
O957       Zr960   2.415       .  S
O957        C959   1.283       .  A
O958       Zr987   2.450   1_556  S
O958        C959   1.291       .  A
C959       C1107   1.480       .  S
Zr960       O961   2.434       .  S
Zr960       O962   2.430       .  S
Zr960       O966   2.359   1_556  S
Zr960       O967   2.368   1_556  S
Zr960       O990   2.371       .  S
Zr960       O992   2.368       .  S
O961       H1004   0.990       .  S
O962       H1003   0.989       .  S
O962       H1007   0.990       .  S
Zr963       O964   2.431       .  S
Zr963       O965   2.433       .  S
Zr963       O967   2.377       .  S
Zr963       O966   2.368       .  S
Zr963       O991   2.368       .  S
Zr963       O993   2.369       .  S
O964       H1005   0.988       .  S
O964       H1008   0.990       .  S
O965        H998   0.990       .  S
O966       Zr986   2.383   1_554  S
O967       Zr987   2.401       .  S
O967        H994   0.965       .  S
O968       Zr980   2.438       .  S
O968        C970   1.287       .  A
O969       Zr987   2.450   1_556  S
O969        C970   1.290       .  A
C970       C1037   1.492       .  S
O971       Zr983   2.402       .  S
O971        C973   1.280       .  A
O972       Zr986   2.455   1_554  S
O972        C973   1.292       .  A
C973       C1065   1.479       .  S
O974       Zr983   2.427       .  S
O974        C976   1.286       .  A
O975       Zr987   2.453       .  S
O975        C976   1.292       .  A
C976       C1124   1.502       .  S
O977       Zr980   2.429       .  S
O977        C979   1.285       .  A
O978       Zr986   2.436       .  S
O978        C979   1.289       .  A
C979       C1093   1.499       .  S
Zr980       O981   2.439       .  S
Zr980       O982   2.433       .  S
Zr980       O988   2.370   1_556  S
Zr980       O989   2.367       .  S
Zr980       O992   2.366       .  S
Zr980       O990   2.363       .  S
O981       H1001   0.989       .  S
O981       H1006   0.990       .  S
O982       H1002   0.990       .  S
Zr983       O984   2.434       .  S
Zr983       O985   2.431       .  S
Zr983       O989   2.368   1_554  S
Zr983       O988   2.354       .  S
Zr983       O993   2.364       .  S
Zr983       O991   2.369       .  S
O984       H1000   0.990       .  S
O985        H999   0.989       .  S
O985       H1009   0.990       .  S
Zr986       O989   2.383       .  S
Zr986       O991   2.399   1_556  S
Zr986       O992   2.394       .  S
Zr987       O988   2.391       .  S
Zr987       O990   2.391   1_554  S
Zr987       O993   2.397       .  S
O988        H996   0.964       .  S
O991        H995   0.966       .  S
O992        H997   0.966       .  S
C1010      C1068   1.494       .  S
C1010      C1011   1.408       .  A
C1010      C1015   1.403       .  A
C1011      C1012   1.404       .  A
C1011      H1016   1.084       .  S
C1013      C1014   1.399       .  A
C1013      H1017   1.084       .  S
C1014      C1082   1.484       .  S
C1015      H1018   1.084       .  S
C1019      C1054   1.500       .  S
C1019      C1020   1.407       .  A
C1019      C1444   1.411       .  A
C1020      C1441   1.395       .  A
C1020      H1025   1.084       .  S
C1021      C1440   1.395   1_545  A
C1021      C1022   1.399       .  A
C1022      C1023   1.400       .  A
C1022      H1026   1.084       .  S
C1023      C1040   1.488       .  S
C1023      C1024   1.408       .  A
C1024      C1439   1.411   1_545  A
C1024      H1027   1.083       .  S
C1028      C1096   1.507       .  S
C1028      C1029   1.411       .  A
C1028      C1033   1.411       .  A
C1029      C1030   1.399       .  A
C1029      H1034   1.083       .  S
C1031      C1032   1.398       .  A
C1031      H1035   1.084       .  S
C1032      C1110   1.489       .  S
C1033      H1036   1.082       .  S
C1037      C1038   1.416       .  A
C1037      C1042   1.413       .  A
C1038      C1039   1.405       .  A
C1038      C1043   1.452       .  S
C1039      C1040   1.409       .  A
C1039      C1046   1.451       .  S
C1040      C1041   1.414       .  A
C1041      C1042   1.418       .  A
C1041      C1044   1.449       .  S
C1042      C1045   1.447       .  S
C1043      N1050   1.157       .  T
C1044      N1049   1.157       .  T
C1045      N1047   1.157       .  T
C1046      N1048   1.157       .  T
C1051      C1052   1.416       .  A
C1051      C1056   1.417       .  A
C1052      C1053   1.407       .  A
C1052      C1057   1.450       .  S
C1053      C1054   1.416       .  A
C1053      C1060   1.454       .  S
C1054      C1055   1.417       .  A
C1055      C1056   1.417       .  A
C1055      C1058   1.450       .  S
C1056      C1059   1.447       .  S
C1057      N1064   1.157       .  T
C1058      N1483   1.157       .  T
C1059      N1061   1.156       .  T
C1060      N1062   1.158       .  T
N1063      C1478   1.157       .  T
C1065      C1066   1.408       .  A
C1065      C1070   1.414       .  A
C1066      C1067   1.411       .  A
C1066      C1071   1.449       .  S
C1067      C1068   1.415       .  A
C1067      C1074   1.448       .  S
C1068      C1069   1.414       .  A
C1069      C1070   1.410       .  A
C1069      C1072   1.451       .  S
C1070      C1073   1.452       .  S
C1071      N1078   1.157       .  T
C1072      N1077   1.157       .  T
C1073      N1075   1.157   1_554  T
C1074      N1076   1.156       .  T
C1079      C1080   1.420       .  A
C1079      C1084   1.419       .  A
C1080      C1081   1.408       .  A
C1080      C1085   1.448       .  S
C1081      C1082   1.408       .  A
C1081      C1088   1.455       .  S
C1082      C1083   1.410       .  A
C1083      C1084   1.413       .  A
C1083      C1086   1.451       .  S
C1084      C1087   1.452       .  S
C1085      N1092   1.156       .  T
C1086      N1091   1.157       .  T
C1087      N1089   1.157       .  T
C1088      N1090   1.157       .  T
C1093      C1094   1.415       .  A
C1093      C1098   1.418       .  A
C1094      C1095   1.415       .  A
C1094      C1099   1.452       .  S
C1095      C1096   1.420       .  A
C1095      C1102   1.448       .  S
C1096      C1097   1.418       .  A
C1097      C1098   1.410       .  A
C1097      C1100   1.453       .  S
C1098      C1101   1.453       .  S
C1099      N1106   1.157       .  T
C1100      N1105   1.157       .  T
C1101      N1103   1.157       .  T
C1102      N1104   1.156       .  T
C1107      C1108   1.412       .  A
C1107      C1112   1.410       .  A
C1108      C1109   1.404       .  A
C1108      C1113   1.450       .  S
C1109      C1110   1.410       .  A
C1109      C1116   1.451       .  S
C1110      C1111   1.417       .  A
C1111      C1112   1.414       .  A
C1111      C1114   1.450       .  S
C1112      C1115   1.449       .  S
C1113      N1120   1.156       .  T
C1114      N1119   1.157       .  T
C1115      N1117   1.157       .  T
C1116      N1118   1.157       .  T
C1121      C1122   1.418       .  A
C1121      C1126   1.421       .  A
C1122      C1123   1.407       .  A
C1122      C1127   1.453       .  S
C1123      C1124   1.415       .  A
C1123      C1130   1.451       .  S
C1124      C1125   1.416       .  A
C1125      C1126   1.419       .  A
C1125      C1128   1.449       .  S
C1126      C1129   1.449       .  S
C1127      N1134   1.157       .  T
C1128      N1133   1.157       .  T
C1129      N1131   1.157       .  T
C1130      N1132   1.157       .  T
C1135      C1136   1.417       .  A
C1135      C1140   1.417       .  A
C1136      C1137   1.417       .  A
C1136      C1141   1.448       .  S
C1137      C1138   1.413       .  A
C1137      C1144   1.450       .  S
C1138      C1139   1.409       .  A
C1139      C1140   1.407       .  A
C1139      C1142   1.451       .  S
C1140      C1143   1.452       .  S
C1141      N1148   1.157       .  T
C1142      N1147   1.157       .  T
C1143      N1145   1.157       .  T
C1144      N1146   1.157       .  T
C1149      C1154   1.413   1_455  A
C1150      C1151   1.413       .  A
C1150      C1155   1.450       .  S
C1151      C1152   1.409       .  A
C1151      C1158   1.450       .  S
C1153      C1154   1.405       .  A
C1153      C1156   1.452       .  S
C1154      C1157   1.453       .  S
C1155      N1162   1.157       .  T
C1156      N1161   1.157       .  T
C1157      N1159   1.157       .  T
C1158      N1160   1.157       .  T
C1163      C1164   1.412       .  A
C1164      C1165   1.411       .  A
C1164      C1169   1.451       .  S
C1165      C1166   1.415       .  A
C1165      C1172   1.449       .  S
C1167      C1168   1.406       .  A
C1167      C1170   1.453       .  S
C1168      C1171   1.452       .  S
C1169      N1176   1.157       .  T
C1170      N1175   1.157       .  T
C1171      N1173   1.157       .  T
C1172      N1174   1.157       .  T
C1177      C1182   1.411   1_455  A
C1178      C1179   1.421       .  A
C1178      C1183   1.450       .  S
C1179      C1180   1.419       .  A
C1179      C1186   1.449       .  S
C1181      C1182   1.398       .  A
C1181      C1184   1.453       .  S
C1182      C1185   1.451       .  S
C1183      N1190   1.157       .  T
C1184      N1189   1.157       .  T
C1185      N1187   1.156       .  T
C1186      N1188   1.157       .  T
C1191      C1192   1.406       .  A
C1192      C1193   1.419       .  A
C1192      C1197   1.450       .  S
C1193      C1194   1.429       .  A
C1193      C1200   1.450       .  S
C1195      C1196   1.408       .  A
C1195      C1198   1.450       .  S
C1196      C1199   1.457       .  S
C1197      N1204   1.157       .  T
C1198      N1203   1.156       .  T
C1199      N1201   1.157       .  T
C1200      N1202   1.158       .  T
C1205      C1206   1.415       .  A
C1205      C1210   1.416       .  A
C1206      C1627   1.406       .  A
C1206      C1211   1.452       .  S
C1207      C1626   1.406       .  A
C1207      C1208   1.419       .  A
C1207      C1214   1.454       .  S
C1208      C1209   1.422   1_545  A
C1209      C1630   1.419       .  A
C1209      C1212   1.448       .  S
C1210      C1629   1.419       .  A
C1210      C1213   1.451       .  S
C1211      N1218   1.157       .  T
C1212      N1217   1.157       .  T
C1213      N1215   1.157       .  T
C1214      N1216   1.157       .  T
C1219      C1220   1.411       .  A
C1219      C1224   1.417       .  A
C1220      C1221   1.406       .  A
C1220      C1645   1.452   1_545  S
C1221      C1222   1.413       .  A
C1221      C1648   1.449   1_545  S
C1222      C1223   1.412       .  A
C1223      C1224   1.416       .  A
C1223      C1226   1.449       .  S
C1224      C1227   1.450       .  S
C1225      C1640   1.452       .  S
C1225      N1232   1.157       .  T
C1226      N1231   1.157       .  T
C1227      N1229   1.157       .  T
C1228      C1641   1.449       .  S
C1228      N1230   1.156       .  T
C1233      C1234   1.416       .  A
C1233      C1238   1.420   1_545  A
C1234      C1655   1.408       .  A
C1234      C1239   1.452       .  S
C1235      C1654   1.408       .  A
C1235      C1236   1.411       .  A
C1235      C1242   1.453       .  S
C1236      C1237   1.407       .  A
C1237      C1658   1.413       .  A
C1237      C1240   1.450       .  S
C1238      C1657   1.413       .  A
C1238      C1241   1.451       .  S
C1239      N1246   1.157       .  T
C1240      N1245   1.157       .  T
C1241      N1243   1.157       .  T
C1242      N1244   1.157       .  T
C1247      C1668   1.421   1_545  A
C1247      C1252   1.415       .  A
C1248      C1667   1.421       .  A
C1248      C1249   1.409       .  A
C1248      C1253   1.450       .  S
C1249      C1670   1.409       .  A
C1249      C1256   1.453       .  S
C1250      C1669   1.409   1_545  A
C1250      C1251   1.414       .  A
C1251      C1252   1.414       .  A
C1251      C1254   1.451       .  S
C1252      C1255   1.449       .  S
C1253      N1260   1.157       .  T
C1254      N1259   1.157       .  T
C1255      N1257   1.157       .  T
C1256      N1258   1.157       .  T
O1261     Zr1273   2.422       .  S
O1262     Zr1299   2.453       .  S
O1262      C1263   1.293       .  A
C1263      C1667   1.496       .  S
O1264     Zr1276   2.429       .  S
O1265     Zr1300   2.434       .  S
O1265      C1266   1.288       .  A
C1266      C1572   1.478       .  S
O1267     Zr1276   2.424   1_545  S
O1268     Zr1299   2.450       .  S
O1268      C1269   1.291       .  A
C1269      C1642   1.485       .  S
O1270     Zr1273   2.413       .  S
O1271     Zr1300   2.449       .  S
O1271      C1272   1.289       .  A
C1272      C1600   1.499       .  S
Zr1273     O1274   2.431       .  S
Zr1273     O1275   2.437       .  S
Zr1273     O1279   2.367       .  S
Zr1273     O1280   2.363       .  S
O1274      H1317   0.990       .  S
O1275      H1316   0.989   1_565  S
O1275      H1320   0.990       .  S
Zr1276     O1277   2.435       .  S
Zr1276     O1278   2.434       .  S
Zr1276     O1280   2.365       .  S
Zr1276     O1279   2.373       .  S
O1277      H1318   0.989       .  S
O1277      H1321   0.990       .  S
O1278      H1311   0.990       .  S
O1280      H1307   0.965       .  S
O1281     Zr1293   2.427       .  S
O1282     Zr1300   2.441       .  S
O1282      C1283   1.289       .  A
C1283      C1656   1.478       .  S
O1284     Zr1296   2.436       .  S
O1285     Zr1299   2.421       .  S
O1285      C1286   1.286       .  A
C1286      C1586   1.488       .  S
O1287     Zr1296   2.429       .  S
O1288     Zr1300   2.447       .  S
O1288      C1289   1.290       .  A
C1289      C1625   1.499       .  S
O1290     Zr1293   2.434       .  S
O1291     Zr1299   2.451       .  S
O1291      C1292   1.292       .  A
C1292      C1614   1.520       .  S
Zr1293     O1294   2.436       .  S
Zr1293     O1295   2.434       .  S
Zr1293     O1301   2.363       .  S
Zr1293     O1302   2.355       .  S
O1294      H1314   0.989       .  S
O1294      H1319   0.990       .  S
O1295      H1315   0.990       .  S
Zr1296     O1297   2.434       .  S
Zr1296     O1298   2.432       .  S
Zr1296     O1302   2.359       .  S
Zr1296     O1301   2.370       .  S
O1297      H1313   0.990       .  S
O1298      H1312   0.990       .  S
O1298      H1322   0.990       .  S
Zr1299     O1304   2.397       .  S
Zr1299     O1305   2.388       .  S
Zr1300     O1303   2.396       .  S
Zr1300     O1306   2.399       .  S
O1301      H1309   0.965       .  S
O1304      H1308   0.966       .  S
O1305      H1310   0.966       .  S
C1323      C1611   1.485       .  S
C1323      C1324   1.408       .  A
C1323      C1328   1.406       .  A
C1324      C1325   1.408       .  A
C1324      H1329   1.083       .  S
C1325      C1597   1.499   1_655  S
C1325      C1326   1.405       .  A
C1326      C1327   1.395       .  A
C1326      H1330   1.085   1_655  S
C1327      C1432   1.471       .  S
C1327      C1328   1.398       .  A
C1328      H1331   1.084       .  S
C1332      C1653   1.497       .  S
C1332      C1333   1.407       .  A
C1332      C1337   1.406       .  A
C1333      C1334   1.405       .  A
C1333      H1338   1.084       .  S
C1334      C1670   1.491       .  S
C1334      C1335   1.401       .  A
C1335      C1336   1.401       .  A
C1335      H1339   1.084       .  S
C1336      C1361   1.470       .  S
C1336      C1337   1.400       .  A
C1337      H1340   1.084       .  S
C1341      C1628   1.511       .  S
C1341      C1342   1.412       .  A
C1341      C1346   1.407       .  A
C1342      C1343   1.414       .  A
C1342      H1347   1.082       .  S
C1343      C1639   1.492       .  S
C1343      C1344   1.403       .  A
C1344      C1345   1.395       .  A
C1344      H1348   1.084       .  S
C1345      C1441   1.467       .  S
C1345      C1346   1.395       .  A
C1346      H1349   1.084       .  S
C1350      C1583   1.483       .  S
C1350      C1351   1.399       .  A
C1350      C1355   1.399       .  A
C1351      C1352   1.403   1_655  A
C1351      H1356   1.084       .  S
C1352      C1569   1.487       .  S
C1352      C1353   1.406   1_455  A
C1353      C1354   1.401       .  A
C1353      H1357   1.084   1_655  S
C1354      C1450   1.467       .  S
C1354      C1355   1.400       .  A
C1355      H1358   1.084       .  S
C1359      C1558   1.489       .  S
C1359      C1360   1.398       .  A
C1360      H1365   1.084       .  S
C1361      C1362   1.399       .  A
C1362      C1363   1.411       .  A
C1362      H1366   1.083       .  S
C1363      C1541   1.509       .  S
C1363      C1364   1.414       .  A
C1364      H1367   1.082       .  S
O1368     Zr1380   2.432       .  S
O1368      C1370   1.287       .  A
O1369     Zr1406   2.450       .  S
O1369      C1370   1.291       .  A
C1370      C1471   1.501       .  S
O1371     Zr1383   2.453       .  S
O1371      C1373   1.289       .  A
O1372     Zr1407   2.431       .  S
O1372      C1373   1.289       .  A
C1373      C1499   1.495       .  S
O1374     Zr1383   2.442       .  S
O1374      C1376   1.288       .  A
O1375     Zr1406   2.438   1_554  S
O1375      C1376   1.288       .  A
C1376      C1555   1.497       .  S
O1377     Zr1380   2.415       .  S
O1377      C1379   1.283       .  A
O1378     Zr1407   2.450   1_556  S
O1378      C1379   1.291       .  A
C1379      C1527   1.480       .  S
Zr1380     O1381   2.434       .  S
Zr1380     O1382   2.430       .  S
Zr1380     O1386   2.359   1_556  S
Zr1380     O1387   2.368   1_556  S
Zr1380     O1410   2.371       .  S
Zr1380     O1412   2.368       .  S
O1381      H1424   0.990       .  S
O1382      H1423   0.989       .  S
O1382      H1427   0.990       .  S
Zr1383     O1384   2.431       .  S
Zr1383     O1385   2.433       .  S
Zr1383     O1387   2.377       .  S
Zr1383     O1386   2.368       .  S
Zr1383     O1411   2.368       .  S
Zr1383     O1413   2.369       .  S
O1384      H1425   0.988       .  S
O1384      H1428   0.990       .  S
O1385      H1418   0.990       .  S
O1386     Zr1406   2.383   1_554  S
O1387     Zr1407   2.401       .  S
O1387      H1414   0.965       .  S
O1388     Zr1400   2.438       .  S
O1388      C1390   1.287       .  A
O1389     Zr1407   2.450   1_556  S
O1389      C1390   1.290       .  A
C1390      C1457   1.492       .  S
O1391     Zr1403   2.402       .  S
O1391      C1393   1.280       .  A
O1392     Zr1406   2.455   1_554  S
O1392      C1393   1.292       .  A
C1393      C1485   1.479       .  S
O1394     Zr1403   2.427       .  S
O1394      C1396   1.286       .  A
O1395     Zr1407   2.453       .  S
O1395      C1396   1.292       .  A
C1396      C1544   1.502       .  S
O1397     Zr1400   2.429       .  S
O1397      C1399   1.285       .  A
O1398     Zr1406   2.436       .  S
O1398      C1399   1.289       .  A
C1399      C1513   1.499       .  S
Zr1400     O1401   2.439       .  S
Zr1400     O1402   2.433       .  S
Zr1400     O1408   2.370   1_556  S
Zr1400     O1409   2.367       .  S
Zr1400     O1412   2.366       .  S
Zr1400     O1410   2.363       .  S
O1401      H1421   0.989       .  S
O1401      H1426   0.990       .  S
O1402      H1422   0.990       .  S
Zr1403     O1404   2.434       .  S
Zr1403     O1405   2.431       .  S
Zr1403     O1409   2.368   1_554  S
Zr1403     O1408   2.354       .  S
Zr1403     O1413   2.364       .  S
Zr1403     O1411   2.369       .  S
O1404      H1420   0.990       .  S
O1405      H1419   0.989       .  S
O1405      H1429   0.990       .  S
Zr1406     O1409   2.383       .  S
Zr1406     O1411   2.399   1_556  S
Zr1406     O1412   2.394       .  S
Zr1407     O1408   2.391       .  S
Zr1407     O1410   2.391   1_554  S
Zr1407     O1413   2.397       .  S
O1408      H1416   0.964       .  S
O1411      H1415   0.966       .  S
O1412      H1417   0.966       .  S
C1430      C1488   1.494       .  S
C1430      C1431   1.408       .  A
C1430      C1435   1.403       .  A
C1431      C1432   1.404       .  A
C1431      H1436   1.084       .  S
C1433      C1434   1.399       .  A
C1433      H1437   1.084       .  S
C1434      C1502   1.484       .  S
C1435      H1438   1.084       .  S
C1439      C1474   1.500       .  S
C1439      C1440   1.407       .  A
C1440      H1445   1.084       .  S
C1441      C1442   1.399       .  A
C1442      C1443   1.400       .  A
C1442      H1446   1.084       .  S
C1443      C1460   1.488       .  S
C1443      C1444   1.408       .  A
C1444      H1447   1.083       .  S
C1448      C1516   1.507       .  S
C1448      C1449   1.411       .  A
C1448      C1453   1.411       .  A
C1449      C1450   1.399       .  A
C1449      H1454   1.083       .  S
C1451      C1452   1.398       .  A
C1451      H1455   1.084       .  S
C1452      C1530   1.489       .  S
C1453      H1456   1.082       .  S
C1457      C1458   1.416       .  A
C1457      C1462   1.413       .  A
C1458      C1459   1.405       .  A
C1458      C1463   1.452       .  S
C1459      C1460   1.409       .  A
C1459      C1466   1.451       .  S
C1460      C1461   1.414       .  A
C1461      C1462   1.418       .  A
C1461      C1464   1.449       .  S
C1462      C1465   1.447       .  S
C1463      N1470   1.157       .  T
C1464      N1469   1.157       .  T
C1465      N1467   1.157       .  T
C1466      N1468   1.157       .  T
C1471      C1472   1.416       .  A
C1471      C1476   1.417       .  A
C1472      C1473   1.407       .  A
C1472      C1477   1.450       .  S
C1473      C1474   1.416       .  A
C1473      C1480   1.454       .  S
C1474      C1475   1.417       .  A
C1475      C1476   1.417       .  A
C1475      C1478   1.450       .  S
C1476      C1479   1.447       .  S
C1477      N1484   1.157       .  T
C1479      N1481   1.156       .  T
C1480      N1482   1.158       .  T
C1485      C1486   1.408       .  A
C1485      C1490   1.414       .  A
C1486      C1487   1.411       .  A
C1486      C1491   1.449       .  S
C1487      C1488   1.415       .  A
C1487      C1494   1.448       .  S
C1488      C1489   1.414       .  A
C1489      C1490   1.410       .  A
C1489      C1492   1.451       .  S
C1490      C1493   1.452       .  S
C1491      N1498   1.157       .  T
C1492      N1497   1.157       .  T
C1493      N1495   1.157   1_554  T
C1494      N1496   1.156       .  T
C1499      C1500   1.420       .  A
C1499      C1504   1.419       .  A
C1500      C1501   1.408       .  A
C1500      C1505   1.448       .  S
C1501      C1502   1.408       .  A
C1501      C1508   1.455       .  S
C1502      C1503   1.410       .  A
C1503      C1504   1.413       .  A
C1503      C1506   1.451       .  S
C1504      C1507   1.452       .  S
C1505      N1512   1.156       .  T
C1506      N1511   1.157       .  T
C1507      N1509   1.157       .  T
C1508      N1510   1.157       .  T
C1513      C1514   1.415       .  A
C1513      C1518   1.418       .  A
C1514      C1515   1.415       .  A
C1514      C1519   1.452       .  S
C1515      C1516   1.420       .  A
C1515      C1522   1.448       .  S
C1516      C1517   1.418       .  A
C1517      C1518   1.410       .  A
C1517      C1520   1.453       .  S
C1518      C1521   1.453       .  S
C1519      N1526   1.157       .  T
C1520      N1525   1.157       .  T
C1521      N1523   1.157       .  T
C1522      N1524   1.156       .  T
C1527      C1528   1.412       .  A
C1527      C1532   1.410       .  A
C1528      C1529   1.404       .  A
C1528      C1533   1.450       .  S
C1529      C1530   1.410       .  A
C1529      C1536   1.451       .  S
C1530      C1531   1.417       .  A
C1531      C1532   1.414       .  A
C1531      C1534   1.450       .  S
C1532      C1535   1.449       .  S
C1533      N1540   1.156       .  T
C1534      N1539   1.157       .  T
C1535      N1537   1.157       .  T
C1536      N1538   1.157       .  T
C1541      C1542   1.418       .  A
C1541      C1546   1.421       .  A
C1542      C1543   1.407       .  A
C1542      C1547   1.453       .  S
C1543      C1544   1.415       .  A
C1543      C1550   1.451       .  S
C1544      C1545   1.416       .  A
C1545      C1546   1.419       .  A
C1545      C1548   1.449       .  S
C1546      C1549   1.449       .  S
C1547      N1554   1.157       .  T
C1548      N1553   1.157       .  T
C1549      N1551   1.157       .  T
C1550      N1552   1.157       .  T
C1555      C1556   1.417       .  A
C1555      C1560   1.417       .  A
C1556      C1557   1.417       .  A
C1556      C1561   1.448       .  S
C1557      C1558   1.413       .  A
C1557      C1564   1.450       .  S
C1558      C1559   1.409       .  A
C1559      C1560   1.407       .  A
C1559      C1562   1.451       .  S
C1560      C1563   1.452       .  S
C1561      N1568   1.157       .  T
C1562      N1567   1.157       .  T
C1563      N1565   1.157       .  T
C1564      N1566   1.157       .  T
C1569      C1574   1.413   1_455  A
C1570      C1571   1.413       .  A
C1570      C1575   1.450       .  S
C1571      C1572   1.409       .  A
C1571      C1578   1.450       .  S
C1573      C1574   1.405       .  A
C1573      C1576   1.452       .  S
C1574      C1577   1.453       .  S
C1575      N1582   1.157       .  T
C1576      N1581   1.157       .  T
C1577      N1579   1.157       .  T
C1578      N1580   1.157       .  T
C1583      C1584   1.412       .  A
C1584      C1585   1.411       .  A
C1584      C1589   1.451       .  S
C1585      C1586   1.415       .  A
C1585      C1592   1.449       .  S
C1587      C1588   1.406       .  A
C1587      C1590   1.453       .  S
C1588      C1591   1.452       .  S
C1589      N1596   1.157       .  T
C1590      N1595   1.157       .  T
C1591      N1593   1.157       .  T
C1592      N1594   1.157       .  T
C1597      C1602   1.411   1_455  A
C1598      C1599   1.421       .  A
C1598      C1603   1.450       .  S
C1599      C1600   1.419       .  A
C1599      C1606   1.449       .  S
C1601      C1602   1.398       .  A
C1601      C1604   1.453       .  S
C1602      C1605   1.451       .  S
C1603      N1610   1.157       .  T
C1604      N1609   1.157       .  T
C1605      N1607   1.156       .  T
C1606      N1608   1.157       .  T
C1611      C1612   1.406       .  A
C1612      C1613   1.419       .  A
C1612      C1617   1.450       .  S
C1613      C1614   1.429       .  A
C1613      C1620   1.450       .  S
C1615      C1616   1.408       .  A
C1615      C1618   1.450       .  S
C1616      C1619   1.457       .  S
C1617      N1624   1.157       .  T
C1618      N1623   1.156       .  T
C1619      N1621   1.157       .  T
C1620      N1622   1.158       .  T
C1625      C1626   1.415   1_565  A
C1625      C1630   1.416       .  A
C1626      C1631   1.452       .  S
C1627      C1628   1.419       .  A
C1627      C1634   1.454       .  S
C1628      C1629   1.422       .  A
C1629      C1632   1.448       .  S
C1630      C1633   1.451       .  S
C1631      N1638   1.157       .  T
C1632      N1637   1.157       .  T
C1633      N1635   1.157       .  T
C1634      N1636   1.157       .  T
C1639      C1640   1.411       .  A
C1639      C1644   1.417       .  A
C1640      C1641   1.406       .  A
C1641      C1642   1.413       .  A
C1642      C1643   1.412       .  A
C1643      C1644   1.416       .  A
C1643      C1646   1.449       .  S
C1644      C1647   1.450       .  S
C1645      N1652   1.157       .  T
C1646      N1651   1.157       .  T
C1647      N1649   1.157       .  T
C1648      N1650   1.156       .  T
C1653      C1654   1.416       .  A
C1653      C1658   1.420       .  A
C1654      C1659   1.452       .  S
C1655      C1656   1.411   1_545  A
C1655      C1662   1.453       .  S
C1656      C1657   1.407       .  A
C1657      C1660   1.450       .  S
C1658      C1661   1.451       .  S
C1659      N1666   1.157       .  T
C1660      N1665   1.157       .  T
C1661      N1663   1.157       .  T
C1662      N1664   1.157       .  T
C1667      C1672   1.415       .  A
C1668      C1669   1.409       .  A
C1668      C1673   1.450       .  S
C1669      C1676   1.453       .  S
C1670      C1671   1.414       .  A
C1671      C1672   1.414       .  A
C1671      C1674   1.451       .  S
C1672      C1675   1.449       .  S
C1673      N1680   1.157       .  T
C1674      N1679   1.157       .  T
C1675      N1677   1.157       .  T
C1676      N1678   1.157       .  T
