geometry optimzed in LAMMPS
_audit_creation_date              2020-11-30 
_audit_creation_method            'lammps2cif' 
_symmetry_space_group_name_H-M    'P1' 
_symmetry_Int_Tables_number       1 
_symmetry_cell_setting            triclinic 
loop_ 
_symmetry_equiv_pos_as_xyz 
  x,y,z 
_cell_length_a                    35.3648517 
_cell_length_b                    34.603061905298894 
_cell_length_c                    34.55405221889434 
_cell_angle_alpha                 89.93043848948058 
_cell_angle_beta                  88.17213839697493 
_cell_angle_gamma                 88.4277541625716 
loop_ 
_atom_site_label 
_atom_site_type_symbol 
_atom_site_fract_x 
_atom_site_fract_y 
_atom_site_fract_z 
_atom_site_charge 
O1          O  0.99096007  0.47850100  0.90913917    -0.77700
C2          C  0.01049049  0.39425027  0.99639591     0.83400
O3          O  0.91565739  0.53167334  0.01055811    -0.78800
O4          O  0.02335497  0.47859104  0.08471462    -0.80300
O5          O  0.09575270  0.53159072  0.97864931    -0.80100
O6          O  0.03560859  0.52279983  0.90689935    -0.78700
Zn7        Zn  0.97615167  0.46956831  0.96438799     1.55700
O8          O  0.09612605  0.48313368  0.02086831    -0.80100
Cd9        Cd  0.03943741  0.53771804  0.96404987     1.59700
Cd10       Cd  0.97083038  0.53628624  0.02695923     1.59600
O11         O  0.02371997  0.59555038  0.97181076    -0.80100
O12         O  0.00620025  0.50310988  0.99517658    -1.90600
Cd13       Cd  0.03944952  0.47049099  0.02792225     1.59900
O14         O  0.98352114  0.59395461  0.02281726    -0.80000
O15         O  0.03343267  0.41265441  0.01659211    -0.78700
C16         C  0.89998031  0.50734971  0.98911454     0.83800
C17         C  0.01448293  0.49910183  0.89026534     0.83500
O18         O  0.98656150  0.41278154  0.97613021    -0.77600
C19         C  0.11349354  0.50840206  0.00080068     0.84300
O20         O  0.91961460  0.48136470  0.97088813    -0.77700
C21         C  0.00304395  0.61256886  0.99785263     0.84400
C22         C  0.99617241  0.49744291  0.10157067     0.84800
O23         O  0.97328597  0.51924574  0.08335280    -0.80200
O24         O  0.00751651  0.58437085  0.52132654    -0.77700
C25         C  0.99087423  0.49010029  0.60224504     0.83400
O26         O  0.07799618  0.47202555  0.46993021    -0.78800
O27         O  0.96722846  0.40239857  0.51885833    -0.80300
O28         O  0.89826726  0.52063045  0.47775300    -0.80100
O29         O  0.96416731  0.58783587  0.47629840    -0.78700
Zn30       Zn  0.01976063  0.52726229  0.52773759     1.55700
O31         O  0.89737810  0.47205865  0.52025827    -0.80100
Cd32       Cd  0.95495281  0.52980144  0.46606738     1.59700
Cd33       Cd  0.02155775  0.46079657  0.46421677     1.59600
O34         O  0.96545229  0.51797292  0.40851850    -0.80100
O35         O  0.98794152  0.49505470  0.49739718    -1.90600
Cd36       Cd  0.95474423  0.46063561  0.52930909     1.59900
O37         O  0.00903974  0.46987003  0.40810468    -0.80000
O38         O  0.96651988  0.46932265  0.58640342    -0.78700
C39         C  0.09420033  0.49641807  0.49083666     0.83800
C40         C  0.98577969  0.60418236  0.49973467     0.83500
O41         O  0.01214498  0.51277609  0.58304994    -0.77600
C42         C  0.88032060  0.49691062  0.49918631     0.84300
O43         O  0.07539105  0.51913042  0.51367320    -0.77700
C44         C  0.98703987  0.49328865  0.39081119     0.84400
C45         C  0.99202318  0.38482109  0.49726746     0.84800
O46         O  0.01479658  0.40283019  0.47500472    -0.80200
O47         O  0.52841577  0.59071406  0.01911112    -0.77700
C48         C  0.51078916  0.50202940  0.10258335     0.83400
O49         O  0.59650408  0.47716646  0.96726082    -0.78800
O50         O  0.48493900  0.41045383  0.02329842    -0.80300
O51         O  0.41703321  0.52898990  0.98278235    -0.78900
O52         O  0.48500046  0.59333068  0.97391092    -0.78700
Zn53       Zn  0.54070173  0.53391559  0.02659787     1.55700
O54         O  0.41803946  0.48061331  0.02529195    -0.80100
Cd55       Cd  0.47351044  0.53556654  0.96724153     1.59700
Cd56       Cd  0.53941770  0.46545808  0.96391973     1.59600
O57         O  0.48003379  0.52118519  0.91012658    -0.80100
O58         O  0.50782837  0.50138047  0.99757021    -1.90600
Cd59       Cd  0.47513681  0.46886226  0.03142215     1.59900
O60         O  0.52424679  0.47359730  0.90767010    -0.80000
O61         O  0.48734174  0.48021321  0.08694540    -0.78700
C62         C  0.61362320  0.50197612  0.98703731     0.83800
C63         C  0.50675260  0.60988662  0.99697717     0.83500
O64         O  0.53335937  0.52308176  0.08304382    -0.77600
C65         C  0.40005633  0.50555037  0.00534572     0.84300
O66         O  0.59574327  0.52486104  0.01049522    -0.77700
C67         C  0.50063065  0.49636065  0.89152250     0.84400
C68         C  0.50791406  0.39120111  0.00123707     0.84800
O69         O  0.53075341  0.40758133  0.97750784    -0.80200
O70         O  0.50474895  0.58901004  0.52546714    -0.77700
C71         C  0.48027785  0.49399481  0.60331053     0.83400
O72         O  0.57858373  0.47931024  0.47631549    -0.78800
O73         O  0.46376661  0.40691071  0.51544093    -0.80300
O74         O  0.39889868  0.52511630  0.47083477    -0.80100
O75         O  0.46476729  0.59315745  0.47700409    -0.78700
Zn76       Zn  0.51634541  0.53158834  0.53210385     1.55700
O77         O  0.39548461  0.47758672  0.51444825    -0.80100
Cd78       Cd  0.45628018  0.53520812  0.46489666     1.59700
Cd79       Cd  0.52304097  0.46652264  0.46744571     1.59600
O80         O  0.47194324  0.52468354  0.40825531    -0.80100
O81         O  0.48693551  0.50015583  0.49839535    -1.90600
Cd82       Cd  0.45153381  0.46506321  0.52685646     1.59900
O83         O  0.51458469  0.47585103  0.41028554    -0.80000
O84         O  0.45805191  0.47272466  0.58507553    -0.78700
C85         C  0.59340817  0.50243820  0.49963925     0.83800
C86         C  0.48474352  0.60893610  0.50232091     0.83500
O87         O  0.50325652  0.51656829  0.58625206    -0.77600
C88         C  0.37985531  0.50173315  0.49164267     0.84300
O89         O  0.57316573  0.52346525  0.52292157    -0.77700
C90         C  0.49457025  0.50015774  0.39171936     0.84400
C91         C  0.49136992  0.38988165  0.49726925     0.84800
O92         O  0.51673932  0.40838771  0.47874494    -0.80200
N93         N  0.00392386  0.96115087  0.04983822    -0.35800
N94         N  0.00105407  0.96148352  0.96367292    -0.56300
N95         N  0.00735473  0.04341931  0.96371036    -0.35800
N96         N  0.00631317  0.04360824  0.05010921    -0.56300
C97         C  0.99431204  0.92433931  0.04266666     0.27800
C98         C  0.99738189  0.96792932  0.08827714     0.27800
C99         C  0.99825431  0.03777953  0.92625590     0.27800
C100        C  0.00037964  0.08115980  0.97195574     0.27800
C101        C  0.00489530  0.92313800  0.97030173     0.36400
C102        C  0.00659592  0.96661119  0.92500517     0.36400
C103        C  0.01319594  0.03729397  0.08803721     0.36400
C104        C  0.01540872  0.08057039  0.04239857     0.36400
C105        C  0.98200860  0.90726393  0.07702076    -0.21100
C106        C  0.98367848  0.93479028  0.10566515    -0.21100
C107        C  0.98565220  0.07242013  0.91050036    -0.21100
C108        C  0.98687699  0.09976414  0.93931810    -0.21100
C109        C  0.01247350  0.90380665  0.93559080    -0.22100
C110        C  0.01371611  0.93135229  0.90697827    -0.22100
C111        C  0.02657542  0.07050644  0.10450965    -0.22100
C112        C  0.02800756  0.09788557  0.07564167    -0.22100
C113        C  0.99890556  0.90481533  0.00661429    -0.17500
C114        C  0.00542747  0.00254194  0.10833041    -0.17500
C115        C  0.00912757  0.10001142  0.00689264    -0.17500
C116        C  0.00244700  0.00246293  0.90556992    -0.17500
H117        H  0.97302371  0.87785649  0.08114581     0.15400
H118        H  0.97614479  0.93064654  0.13595873     0.15400
H119        H  0.97667618  0.07750639  0.88123264     0.15400
H120        H  0.97925940  0.13010939  0.93636296     0.15400
H121        H  0.01619852  0.87295782  0.93118892     0.13700
H122        H  0.01861883  0.92596187  0.87635696     0.13700
H123        H  0.03414940  0.07469444  0.13428285     0.13700
H124        H  0.03668407  0.12742239  0.07893210     0.13700
H125        H  0.01813387  0.97879388  0.03026122     0.27000
H126        H  0.02170357  0.02402268  0.98135335     0.27000
N127        N  0.00288502  0.95351723  0.55001588    -0.35800
N128        N  0.00494387  0.03612561  0.55037214    -0.56300
N129        N  0.00692518  0.03636154  0.46464802    -0.35800
N130        N  0.00170816  0.95394491  0.46413248    -0.56300
C131        C  0.99443035  0.96065166  0.58805101     0.27800
C132        C  0.99316612  0.91679806  0.54253203     0.27800
C133        C  0.99965637  0.07409817  0.47275791     0.27800
C134        C  0.99837100  0.03064593  0.42710340     0.27800
C135        C  0.01119304  0.02967001  0.58832831     0.36400
C136        C  0.01357624  0.07328093  0.54324598     0.36400
C137        C  0.00625963  0.91560412  0.47069906     0.36400
C138        C  0.00789244  0.95946917  0.42559093     0.36400
C139        C  0.97930241  0.92790418  0.60487941    -0.21100
C140        C  0.97878519  0.90018001  0.57630201    -0.21100
C141        C  0.98659489  0.09266130  0.43994093    -0.21100
C142        C  0.98579182  0.06524168  0.41116167    -0.21100
C143        C  0.02406877  0.06288372  0.60531408    -0.22100
C144        C  0.02532661  0.09059993  0.57680410    -0.22100
C145        C  0.01506372  0.89663506  0.43606356    -0.22100
C146        C  0.01617160  0.92442693  0.40754323    -0.22100
C147        C  0.00218214  0.99517707  0.60833061    -0.17500
C148        C  0.99926990  0.89704137  0.50677099    -0.17500
C149        C  0.00358109  0.99548007  0.40634003    -0.17500
C150        C  0.00721827  0.09283305  0.50801116    -0.17500
H151        H  0.97014647  0.92414187  0.63479911     0.15400
H152        H  0.96913801  0.87096517  0.58009049     0.15400
H153        H  0.97890256  0.12297512  0.43686003     0.15400
H154        H  0.97721823  0.07027648  0.38174891     0.15400
H155        H  0.03096564  0.06698445  0.63529582     0.13700
H156        H  0.03329076  0.12031590  0.58051043     0.13700
H157        H  0.01957750  0.86586708  0.43167634     0.13700
H158        H  0.02179802  0.91935567  0.37697206     0.13700
H159        H  0.01836116  0.97087505  0.53114943     0.27000
H160        H  0.02106920  0.01695918  0.48246984     0.27000
N161        N  0.50659887  0.96029782  0.96283298    -0.35800
N162        N  0.50886006  0.04286422  0.96401872    -0.56300
N163        N  0.50683430  0.04098022  0.05012472    -0.35800
N164        N  0.50828480  0.95826351  0.04883815    -0.56300
C165        C  0.51465919  0.96728583  0.92477084     0.27800
C166        C  0.51470304  0.92248271  0.96950070     0.27800
C167        C  0.51520199  0.07828070  0.04295549     0.27800
C168        C  0.51472437  0.03345921  0.08768640     0.27800
C169        C  0.50233951  0.03811220  0.92586336     0.36400
C170        C  0.50225808  0.08071709  0.97200874     0.36400
C171        C  0.50119535  0.92089430  0.04118867     0.36400
C172        C  0.50134167  0.96354451  0.08734339     0.36400
C173        C  0.52788489  0.93339542  0.90711036    -0.21100
C174        C  0.52783446  0.90513785  0.93526053    -0.21100
C175        C  0.52832604  0.09479523  0.07638144    -0.21100
C176        C  0.52821619  0.06649124  0.10449680    -0.21100
C177        C  0.49174305  0.07316760  0.90953668    -0.22100
C178        C  0.49185359  0.10017165  0.93868315    -0.22100
C179        C  0.48995722  0.90225403  0.07504408    -0.22100
C180        C  0.48988994  0.92929013  0.10420735    -0.22100
C181        C  0.50826585  0.00293718  0.90521630    -0.17500
C182        C  0.50762613  0.90252054  0.00480501    -0.17500
C183        C  0.50773442  0.99828301  0.10768791    -0.17500
C184        C  0.50841285  0.09863510  0.00806065    -0.17500
H185        H  0.53624554  0.92932268  0.87695493     0.15400
H186        H  0.53604169  0.87505854  0.93086733     0.15400
H187        H  0.53668082  0.12435905  0.08028134     0.15400
H188        H  0.53652440  0.07003423  0.13413165     0.15400
H189        H  0.48514386  0.07880460  0.87965173     0.13700
H190        H  0.48544522  0.13076206  0.93556012     0.13700
H191        H  0.48296030  0.87215888  0.07846227     0.13700
H192        H  0.48276917  0.92416541  0.13443786     0.13700
H193        H  0.49222258  0.97873576  0.98212044     0.27000
H194        H  0.49234629  0.02347452  0.03172507     0.27000
N195        N  0.51274361  0.03974379  0.46287847    -0.35800
N196        N  0.51057020  0.04139929  0.54860430    -0.56300
N197        N  0.50753556  0.95877032  0.55014194    -0.35800
N198        N  0.50665902  0.95734894  0.46448744    -0.56300
C199        C  0.50474321  0.07753715  0.47013333     0.27800
C200        C  0.50405657  0.03290662  0.42555218     0.27800
C201        C  0.49952939  0.96695100  0.58803519     0.27800
C202        C  0.49613285  0.92241652  0.54340309     0.27800
C203        C  0.51860542  0.07858136  0.54064675     0.36400
C204        C  0.51669956  0.03589904  0.58676364     0.36400
C205        C  0.51454593  0.96196861  0.42610925     0.36400
C206        C  0.51130915  0.91922824  0.47219584     0.36400
C207        C  0.49106620  0.09497377  0.43698732    -0.21100
C208        C  0.49066343  0.06682541  0.40888540    -0.21100
C209        C  0.48307388  0.93528156  0.60560260    -0.21100
C210        C  0.48078501  0.90727530  0.57746857    -0.21100
C211        C  0.52989007  0.09683735  0.57390870    -0.22100
C212        C  0.52881924  0.06975891  0.60308241    -0.22100
C213        C  0.52435654  0.92662742  0.40937027    -0.22100
C214        C  0.52233105  0.89956251  0.43852496    -0.22100
C215        C  0.51191663  0.09733319  0.50494103    -0.17500
C216        C  0.50980659  0.99726833  0.40568671    -0.17500
C217        C  0.50206259  0.90146991  0.50822326    -0.17500
C218        C  0.50840981  0.00159100  0.60747338    -0.17500
H219        H  0.48263324  0.12502024  0.43326755     0.15400
H220        H  0.48176098  0.07092909  0.37945037     0.15400
H221        H  0.47387019  0.93255369  0.63563244     0.15400
H222        H  0.46965493  0.87871270  0.58179442     0.15400
H223        H  0.53730755  0.12679315  0.57699857     0.13700
H224        H  0.53533798  0.07469469  0.63303466     0.13700
H225        H  0.53146978  0.92085544  0.37919549     0.13700
H226        H  0.52756584  0.86876928  0.43514141     0.13700
H227        H  0.52722005  0.02096521  0.48109152     0.27000
H228        H  0.52377972  0.97514778  0.53101144     0.27000
C229        C  0.48144777  0.02579783  0.71401918    -0.04600
C230        C  0.50854340  0.00355879  0.73429891     0.09500
C231        C  0.53540165  0.98058002  0.71279409    -0.02000
C232        C  0.53586088  0.98069689  0.67172585    -0.00300
C233        C  0.50815966  0.00212253  0.65141178    -0.03900
C234        C  0.48056207  0.02422843  0.67301384     0.03100
C235        C  0.50839333  0.00378810  0.77825404     0.10000
C236        C  0.56222568  0.95616844  0.73305805     0.35900
C237        C  0.45074368  0.04487427  0.65305583     0.39300
C238        C  0.48037188  0.98405573  0.79997947    -0.04300
C239        C  0.47990075  0.98447319  0.84104767     0.02900
C240        C  0.50834523  0.00339471  0.86121975    -0.03900
C241        C  0.53674686  0.02268637  0.83938223    -0.00100
C242        C  0.53630875  0.02350041  0.79831472    -0.02700
C243        C  0.45214346  0.96286971  0.77988637     0.36600
C244        C  0.56679043  0.04142009  0.85918204     0.40200
C245        C  0.44963566  0.96586110  0.86262108     0.39300
C246        C  0.56438914  0.04511343  0.77657043     0.36300
C247        C  0.45467824  0.05072550  0.73547374     0.37000
C248        C  0.56540513  0.95927533  0.65024130     0.40200
N249        N  0.42545512  0.95106216  0.87986313    -0.37900
N250        N  0.42974088  0.94595600  0.76366038    -0.39500
N251        N  0.59070689  0.05643349  0.87502925    -0.37200
N252        N  0.58667932  0.06246164  0.75913922    -0.39600
N253        N  0.58344473  0.93651002  0.74930957    -0.39400
N254        N  0.58905564  0.94239704  0.63296586    -0.37000
N255        N  0.42684786  0.06121999  0.63713527    -0.38000
N256        N  0.43349760  0.07073087  0.75271626    -0.39700
C257        C  0.53495741  0.97492077  0.21280282    -0.04600
C258        C  0.50761668  0.99687036  0.23481597     0.09500
C259        C  0.48012425  0.01900471  0.21492043    -0.02000
C260        C  0.48006971  0.01931849  0.17383264    -0.00300
C261        C  0.50775239  0.99778055  0.15173312    -0.03900
C262        C  0.53535662  0.97575988  0.17171085     0.03100
C263        C  0.50807864  0.99697910  0.27882771     0.10000
C264        C  0.45167179  0.04151668  0.23683920     0.35900
C265        C  0.56463831  0.95422699  0.14994031     0.39300
C266        C  0.53705256  0.01568725  0.29837441    -0.04300
C267        C  0.53784601  0.01540321  0.33941148     0.02900
C268        C  0.50930913  0.99696293  0.36176821    -0.03900
C269        C  0.47982513  0.97908602  0.34225106    -0.00100
C270        C  0.47951109  0.97861281  0.30119465    -0.02700
C271        C  0.56593617  0.03576668  0.27617099     0.36600
C272        C  0.44912710  0.96198451  0.36453169     0.40200
C273        C  0.56811282  0.03429784  0.35872967     0.39300
C274        C  0.44962249  0.95912984  0.28190093     0.36300
C275        C  0.56251450  0.95092596  0.23257781     0.37000
C276        C  0.45126185  0.04184773  0.15424565     0.40200
N277        N  0.59206897  0.04957360  0.37426254    -0.37900
N278        N  0.58902721  0.05171988  0.25843158    -0.39500
N279        N  0.42464021  0.94843391  0.38241638    -0.37200
N280        N  0.42563595  0.94378082  0.26649709    -0.39600
N281        N  0.42877051  0.05915049  0.25441146    -0.39400
N282        N  0.42845977  0.06005108  0.13857504    -0.37000
N283        N  0.58789014  0.93691723  0.13252318    -0.38000
N284        N  0.58446389  0.93180872  0.24845707    -0.39700
C285        C  0.97345105  0.02230646  0.71375955    -0.04600
C286        C  0.99842424  0.99863927  0.73520459     0.09500
C287        C  0.02400027  0.97319003  0.71491516    -0.02000
C288        C  0.02546047  0.97230570  0.67386945    -0.00300
C289        C  0.00012026  0.99556213  0.65231492    -0.03900
C290        C  0.97357587  0.02005278  0.67276263     0.03100
C291        C  0.99852551  0.00102593  0.77904957     0.10000
C292        C  0.04899802  0.94783368  0.73643287     0.35900
C293        C  0.94629712  0.04310818  0.65157730     0.39300
C294        C  0.96892027  0.98530952  0.80208867    -0.04300
C295        C  0.96955694  0.98702155  0.84307676     0.02900
C296        C  0.00065451  0.00285064  0.86176789    -0.03900
C297        C  0.03018702  0.01869949  0.83868418    -0.00100
C298        C  0.02866458  0.01859264  0.79771919    -0.02700
C299        C  0.93795334  0.96683976  0.78357909     0.36600
C300        C  0.06262826  0.03449925  0.85708529     0.40200
C301        C  0.93790919  0.97285134  0.86617384     0.39300
C302        C  0.05797164  0.03703300  0.77458479     0.36300
C303        C  0.94828128  0.04986561  0.73391353     0.37000
C304        C  0.05379138  0.94803886  0.65375640     0.40200
N305        N  0.91269009  0.96171145  0.88478520    -0.37900
N306        N  0.91323509  0.95206238  0.76882153    -0.39500
N307        N  0.08859902  0.04701971  0.87172761    -0.37200
N308        N  0.08114323  0.05187845  0.75593520    -0.39600
N309        N  0.06889998  0.92760650  0.75367957    -0.39400
N310        N  0.07632440  0.92868413  0.63757651    -0.37000
N311        N  0.92468045  0.06160765  0.63458963    -0.38000
N312        N  0.92836910  0.07200706  0.75002761    -0.39700
C313        C  0.97912574  0.02638333  0.21537065    -0.04600
C314        C  0.00381376  0.00122489  0.23558131     0.09500
C315        C  0.02946209  0.97704635  0.21381801    -0.02000
C316        C  0.03121786  0.97890270  0.17276580    -0.00300
C317        C  0.00507451  0.00242732  0.15243655    -0.03900
C318        C  0.97858100  0.02573224  0.17429506     0.03100
C319        C  0.00325586  0.00042442  0.27963260     0.10000
C320        C  0.05390269  0.94981621  0.23378367     0.35900
C321        C  0.95021735  0.04871013  0.15456736     0.39300
C322        C  0.97222136  0.98519923  0.30106605    -0.04300
C323        C  0.97234079  0.98348705  0.34212108     0.02900
C324        C  0.00356565  0.99670460  0.36248476    -0.03900
C325        C  0.03431769  0.01243331  0.34114995    -0.00100
C326        C  0.03406916  0.01449212  0.30015454    -0.02700
C327        C  0.93997390  0.97131367  0.28085291     0.36600
C328        C  0.06642152  0.02647549  0.36152064     0.40200
C329        C  0.93996171  0.96866857  0.36360310     0.39300
C330        C  0.06544343  0.03166911  0.27900097     0.36300
C331        C  0.95490520  0.05377956  0.23689657     0.37000
C332        C  0.06074620  0.95729562  0.15145110     0.40200
N333        N  0.91419977  0.95686965  0.38090837    -0.37900
N334        N  0.91406512  0.96055901  0.26475167    -0.39500
N335        N  0.09195269  0.03775141  0.37787647    -0.37200
N336        N  0.09048429  0.04528378  0.26202838    -0.39600
N337        N  0.07323240  0.92804098  0.24987811    -0.39400
N338        N  0.08452337  0.94031152  0.13446437    -0.37000
N339        N  0.92749271  0.06696125  0.13883934    -0.38000
N340        N  0.93587275  0.07586405  0.25414121    -0.39700
C341        C  0.52362148  0.28806337  0.52434348    -0.04600
C342        C  0.50202384  0.26555364  0.49965321     0.09500
C343        C  0.47680200  0.28403105  0.47416459    -0.02000
C344        C  0.47269873  0.32472181  0.47391137    -0.00300
C345        C  0.49466988  0.34716531  0.49824030    -0.03900
C346        C  0.52044697  0.32877326  0.52313666     0.03100
C347        C  0.50500239  0.22230274  0.50131017     0.10000
C348        C  0.45517073  0.26105935  0.44815397     0.35900
C349        C  0.54344733  0.35181498  0.54779978     0.39300
C350        C  0.47586016  0.20131184  0.51974873    -0.04300
C351        C  0.47822037  0.16061109  0.52098932     0.02900
C352        C  0.51003209  0.14058545  0.50432927    -0.03900
C353        C  0.53933020  0.16154443  0.48607957    -0.00100
C354        C  0.53677955  0.20229290  0.48448808    -0.02700
C355        C  0.44337914  0.22171501  0.53744454     0.36600
C356        C  0.57195109  0.14106123  0.46874139     0.40200
C357        C  0.44751836  0.13917813  0.53870269     0.39300
C358        C  0.56667220  0.22367798  0.46526418     0.36300
C359        C  0.54855869  0.26921670  0.55150638     0.37000
C360        C  0.44604549  0.34355834  0.44847536     0.40200
N361        N  0.42307666  0.12195265  0.55275847    -0.37900
N362        N  0.41744962  0.23808468  0.55142669    -0.39500
N363        N  0.59785796  0.12461416  0.45479403    -0.37200
N364        N  0.59056907  0.24076509  0.45002459    -0.39600
N365        N  0.43795878  0.24259832  0.42747591    -0.39400
N366        N  0.42466812  0.35860110  0.42830522    -0.37000
N367        N  0.56186235  0.37025375  0.56734934    -0.38000
N368        N  0.56833155  0.25404072  0.57320532    -0.39700
C369        C  0.51478953  0.71197416  0.48254272    -0.04600
C370        C  0.48895338  0.73350720  0.50657785     0.09500
C371        C  0.46155533  0.71397901  0.52927016    -0.02000
C372        C  0.45997720  0.67320996  0.52786853    -0.00300
C373        C  0.48593015  0.65175044  0.50392584    -0.03900
C374        C  0.51346629  0.67124928  0.48145988     0.03100
C375        C  0.49116251  0.77675360  0.50835659     0.10000
C376        C  0.43527692  0.73593858  0.55432740     0.35900
C377        C  0.54078641  0.64925789  0.45755576     0.39300
C378        C  0.46564718  0.80048503  0.48777778    -0.04300
C379        C  0.46816089  0.84112924  0.48911936     0.02900
C380        C  0.49776222  0.85834183  0.50900344    -0.03900
C381        C  0.52357073  0.83445195  0.52918823    -0.00100
C382        C  0.51945633  0.79398236  0.52992664    -0.02700
C383        C  0.43721258  0.78297429  0.46465604     0.36600
C384        C  0.55491020  0.85146306  0.54849091     0.40200
C385        C  0.44010616  0.86530188  0.47024238     0.39300
C386        C  0.54407871  0.76994897  0.55324457     0.36300
C387        C  0.54268832  0.73185279  0.45880824     0.37000
C388        C  0.43187576  0.65329873  0.55128904     0.40200
N389        N  0.41768579  0.88464453  0.45530530    -0.37900
N390        N  0.41467863  0.76896161  0.44602661    -0.39500
N391        N  0.57995780  0.86511813  0.56374988    -0.37200
N392        N  0.56341769  0.75071714  0.57213468    -0.39600
N393        N  0.41435975  0.75362768  0.57424635    -0.39400
N394        N  0.40943684  0.63746337  0.57002752    -0.37000
N395        N  0.56267609  0.63161971  0.43869456    -0.38000
N396        N  0.56491634  0.74780157  0.43990751    -0.39700
C397        C  0.51428055  0.28829168  0.04011049    -0.04600
C398        C  0.50584741  0.26675527  0.00699386     0.09500
C399        C  0.49764926  0.28608953  0.97214776    -0.02000
C400        C  0.49869679  0.32677686  0.97014919    -0.00300
C401        C  0.50759405  0.34837910  0.00314406    -0.03900
C402        C  0.51495415  0.32901846  0.03828533     0.03100
C403        C  0.50663641  0.22353045  0.00843943     0.10000
C404        C  0.48792603  0.26397419  0.93843296     0.35900
C405        C  0.52416191  0.35094618  0.07232699     0.39300
C406        C  0.47343938  0.20347685  0.01816073    -0.04300
C407        C  0.47412602  0.16269270  0.01838497     0.02900
C408        C  0.50807631  0.14181650  0.00917527    -0.03900
C409        C  0.54134738  0.16188969  0.99981224    -0.00100
C410        C  0.54060726  0.20265074  0.99939104    -0.02700
C411        C  0.43856254  0.22490054  0.02759521     0.36600
C412        C  0.57623914  0.14048133  0.99038723     0.40200
C413        C  0.43977518  0.14205874  0.02726893     0.39300
C414        C  0.57468785  0.22326846  0.98930714     0.36300
C415        C  0.52247461  0.26838004  0.07596705     0.37000
C416        C  0.48949520  0.34652095  0.93445666     0.40200
N417        N  0.41240821  0.12545293  0.03417362    -0.37900
N418        N  0.41074875  0.24203921  0.03514086    -0.39500
N419        N  0.60405211  0.12332578  0.98288607    -0.37200
N420        N  0.60178586  0.23987531  0.98123679    -0.39600
N421        N  0.48005268  0.24622303  0.91163956    -0.39400
N422        N  0.48209553  0.36239380  0.90606907    -0.37000
N423        N  0.53151721  0.36846666  0.09945769    -0.38000
N424        N  0.52901073  0.25236947  0.10451035    -0.39700
C425        C  0.51635323  0.71459634  0.96551281    -0.04600
C426        C  0.50645302  0.73441606  0.00018813     0.09500
C427        C  0.49693501  0.71331588  0.03392832    -0.02000
C428        C  0.49736004  0.67253905  0.03301231    -0.00300
C429        C  0.50678534  0.65269370  0.99814738    -0.03900
C430        C  0.51617922  0.67385940  0.96437624     0.03100
C431        C  0.50670360  0.77762865  0.00131905     0.10000
C432        C  0.48668292  0.73369119  0.06955639     0.35900
C433        C  0.52683567  0.65364428  0.92874473     0.39300
C434        C  0.47496577  0.79962070  0.98934808    -0.04300
C435        C  0.47526453  0.84036523  0.99051711     0.02900
C436        C  0.50735402  0.85930763  0.00356409    -0.03900
C437        C  0.53920974  0.83726653  0.01522999    -0.00100
C438        C  0.53887672  0.79653625  0.01408272    -0.02700
C439        C  0.44209916  0.78020967  0.97570571     0.36600
C440        C  0.57246905  0.85659823  0.02798118     0.40200
C441        C  0.44251430  0.86291711  0.97849609     0.39300
C442        C  0.57176956  0.77390859  0.02558822     0.36300
C443        C  0.52741466  0.73623420  0.93121285     0.37000
C444        C  0.48723832  0.65102630  0.06773252     0.40200
N445        N  0.41645352  0.88101763  0.96888772    -0.37900
N446        N  0.41596072  0.76464332  0.96470669    -0.39500
N447        N  0.59899867  0.87206780  0.03814263    -0.37200
N448        N  0.59793378  0.75565837  0.03465855    -0.39600
N449        N  0.47853299  0.75001480  0.09795336    -0.39400
N450        N  0.47920473  0.63381223  0.09539542    -0.37000
N451        N  0.53535541  0.63740300  0.90039498    -0.38000
N452        N  0.53639998  0.75358372  0.90394645    -0.39700
C453        C  0.52520294  0.49738489  0.78445041    -0.04600
C454        C  0.48935289  0.49181955  0.76903047     0.09500
C455        C  0.45727121  0.48737002  0.79362814    -0.02000
C456        C  0.46096210  0.48866997  0.83391526    -0.00300
C457        C  0.49690348  0.49404046  0.84946381    -0.03900
C458        C  0.52905286  0.49831523  0.82473652     0.03100
C459        C  0.48514713  0.49202596  0.72661013     0.10000
C460        C  0.42046718  0.48201674  0.77731777     0.35900
C461        C  0.56569489  0.50552109  0.84067971     0.39300
C462        C  0.48546895  0.45686821  0.70610711    -0.04300
C463        C  0.48286531  0.45722650  0.66561083     0.02900
C464        C  0.47965540  0.49290164  0.64583533    -0.03900
C465        C  0.47813659  0.52801409  0.66672937    -0.00100
C466        C  0.48122690  0.52754281  0.70706625    -0.02700
C467        C  0.48934993  0.42049029  0.72675198     0.36600
C468        C  0.47299186  0.56467234  0.64679718     0.40200
C469        C  0.48534941  0.42103131  0.64436801     0.39300
C470        C  0.48101626  0.56360268  0.72849794     0.36300
C471        C  0.55784866  0.50309821  0.75876552     0.37000
C472        C  0.42783470  0.48423639  0.85929183     0.40200
N473        N  0.48740880  0.39207081  0.62760811    -0.37900
N474        N  0.49242345  0.39157359  0.74337050    -0.39500
N475        N  0.46895868  0.59382318  0.63079677    -0.37200
N476        N  0.48108245  0.59236581  0.74554136    -0.39600
N477        N  0.39118407  0.47774626  0.76417163    -0.39400
N478        N  0.40139214  0.48090200  0.87950655    -0.37000
N479        N  0.59483874  0.51140320  0.85346435    -0.38000
N480        N  0.58379108  0.50792270  0.73823884    -0.39700
C481        C  0.47498326  0.50487390  0.20635947    -0.04600
C482        C  0.50913724  0.50122039  0.22596366     0.09500
C483        C  0.54414516  0.49920419  0.20542601    -0.02000
C484        C  0.54499580  0.49986708  0.16478104    -0.00300
C485        C  0.51072009  0.50328296  0.14499033    -0.03900
C486        C  0.47573963  0.50657760  0.16588837     0.03100
C487        C  0.50784740  0.50050069  0.26861280     0.10000
C488        C  0.57909628  0.49627852  0.22624016     0.35900
C489        C  0.44054570  0.51289047  0.14591215     0.39300
C490        C  0.50268370  0.46527319  0.28818662    -0.04300
C491        C  0.49763476  0.46512905  0.32860694     0.02900
C492        C  0.49850664  0.50028482  0.34934192    -0.03900
C493        C  0.50456777  0.53544914  0.32955519    -0.00100
C494        C  0.50899321  0.53550767  0.28911336    -0.02700
C495        C  0.50220414  0.42935658  0.26655614     0.36600
C496        C  0.50732616  0.57143475  0.35071328     0.40200
C497        C  0.49025912  0.42901683  0.34855787     0.39300
C498        C  0.51449869  0.57153485  0.26838245     0.36300
C499        C  0.43908199  0.50683775  0.22798563     0.37000
C500        C  0.58093043  0.49572046  0.14350720     0.40200
N501        N  0.48435418  0.40020381  0.36438546    -0.37900
N502        N  0.50195793  0.40075558  0.24924968    -0.39500
N503        N  0.50954355  0.60014540  0.36752720    -0.37200
N504        N  0.51890084  0.60016104  0.25169941    -0.39600
N505        N  0.60693059  0.49408552  0.24292782    -0.39400
N506        N  0.60957912  0.49238045  0.12653355    -0.37000
N507        N  0.41255970  0.51801255  0.12995760    -0.38000
N508        N  0.41051082  0.50822686  0.24528002    -0.39700
C509        C  0.00856293  0.28300489  0.53550281    -0.04600
C510        C  0.00203183  0.26058868  0.50243039     0.09500
C511        C  0.99274197  0.27897293  0.46738219    -0.02000
C512        C  0.98926734  0.31965606  0.46560434    -0.00300
C513        C  0.99530339  0.34209113  0.49887149    -0.03900
C514        C  0.00554567  0.32366905  0.53364396     0.03100
C515        C  0.00386903  0.21746192  0.50481965     0.10000
C516        C  0.98647021  0.25585875  0.43330197     0.35900
C517        C  0.01431258  0.34668517  0.56710964     0.39300
C518        C  0.97161423  0.19726334  0.51746382    -0.04300
C519        C  0.97287328  0.15656856  0.51891894     0.02900
C520        C  0.00656180  0.13593873  0.50828955    -0.03900
C521        C  0.03915756  0.15612490  0.49675764    -0.00100
C522        C  0.03765563  0.19682187  0.49443262    -0.02700
C523        C  0.93704226  0.21845777  0.52861729     0.36600
C524        C  0.07427268  0.13489893  0.48782031     0.40200
C525        C  0.93943915  0.13574191  0.53091148     0.39300
C526        C  0.07064272  0.21748472  0.48087718     0.36300
C527        C  0.01829313  0.26410790  0.57146393     0.37000
C528        C  0.97853881  0.33835758  0.42984009     0.40200
N529        N  0.91285921  0.11894329  0.54041628    -0.37900
N530        N  0.90951328  0.23544310  0.53758422    -0.39500
N531        N  0.10230468  0.11783083  0.48107969    -0.37200
N532        N  0.09690080  0.23394224  0.46978933    -0.39600
N533        N  0.98158358  0.23726584  0.40618904    -0.39400
N534        N  0.96987807  0.35323345  0.40131628    -0.37000
N535        N  0.02155289  0.36521387  0.59359497    -0.38000
N536        N  0.02593798  0.24898080  0.60017119    -0.39700
C537        C  0.99044847  0.70707864  0.53946121    -0.04600
C538        C  0.99004362  0.72920769  0.50516185     0.09500
C539        C  0.98741577  0.71047026  0.46915226    -0.02000
C540        C  0.98548770  0.66980314  0.46731755    -0.00300
C541        C  0.98612918  0.64735510  0.50166816    -0.03900
C542        C  0.98814233  0.66641629  0.53782804     0.03100
C543        C  0.99228563  0.77240043  0.50679015     0.10000
C544        C  0.98744409  0.73320347  0.43382974     0.35900
C545        C  0.98649548  0.64444662  0.57361882     0.39300
C546        C  0.02741378  0.78991370  0.51179588    -0.04300
C547        C  0.02953121  0.83057837  0.51265886     0.02900
C548        C  0.99683770  0.85394982  0.50695851    -0.03900
C549        C  0.96184129  0.83646998  0.50137999    -0.00100
C550        C  0.95939957  0.79585307  0.50224807    -0.02700
C551        C  0.06144114  0.76601652  0.51543883     0.36600
C552        C  0.92845149  0.86042253  0.49444521     0.40200
C553        C  0.06535743  0.84851537  0.51916493     0.39300
C554        C  0.92299650  0.77809693  0.49883036     0.36300
C555        C  0.99333090  0.72628827  0.57650382     0.37000
C556        C  0.98413007  0.65120969  0.42978659     0.40200
N557        N  0.09386266  0.86294537  0.52450115    -0.37900
N558        N  0.08857564  0.74688266  0.51821509    -0.39500
N559        N  0.90195419  0.87967176  0.48865840    -0.37200
N560        N  0.89393366  0.76388403  0.49634223    -0.39600
N561        N  0.98745962  0.75148507  0.40576227    -0.39400
N562        N  0.98298826  0.63647442  0.39980886    -0.37000
N563        N  0.98503762  0.62695268  0.60217537    -0.38000
N564        N  0.99589101  0.74164612  0.60600094    -0.39700
C565        C  0.77798384  0.46731644  0.48898724    -0.04600
C566        C  0.75808044  0.50241309  0.49727361     0.09500
C567        C  0.77833854  0.53571455  0.50594370    -0.02000
C568        C  0.81824106  0.53385838  0.50679264    -0.00300
C569        C  0.83821813  0.49852990  0.49925694    -0.03900
C570        C  0.81788444  0.46529218  0.49018250     0.03100
C571        C  0.71563867  0.50399472  0.49795347     0.10000
C572        C  0.75800265  0.57194243  0.51392262     0.35900
C573        C  0.83808129  0.42932606  0.48066023     0.39300
C574        C  0.69511028  0.49953992  0.53331146    -0.04300
C575        C  0.65515615  0.49978085  0.53408029     0.02900
C576        C  0.63538881  0.50461877  0.49940620    -0.03900
C577        C  0.65601431  0.50984082  0.46407574    -0.00100
C578        C  0.69597746  0.50935692  0.46336990    -0.02700
C579        C  0.71530361  0.49389289  0.56883977     0.36600
C580        C  0.63609058  0.51653589  0.42848707     0.40200
C581        C  0.63450763  0.49324213  0.57034606     0.39300
C582        C  0.71696063  0.51406970  0.42700031     0.36300
C583        C  0.75728651  0.43336811  0.47884808     0.37000
C584        C  0.83870225  0.56820673  0.51624814     0.40200
N585        N  0.61800885  0.48789374  0.59923598    -0.37900
N586        N  0.73156124  0.48938518  0.59710061    -0.39500
N587        N  0.62008637  0.52194156  0.40019706    -0.37200
N588        N  0.73366735  0.51769924  0.39793671    -0.39600
N589        N  0.74175980  0.60084350  0.52027489    -0.39400
N590        N  0.85511506  0.59556046  0.52371353    -0.37000
N591        N  0.85426034  0.40069060  0.47297702    -0.38000
N592        N  0.74070709  0.40638900  0.47053790    -0.39700
C593        C  0.19362272  0.53573620  0.48116588    -0.04600
C594        C  0.21603821  0.50171757  0.48550235     0.09500
C595        C  0.19844931  0.46590384  0.49081116    -0.02000
C596        C  0.15864951  0.46418588  0.49282450    -0.00300
C597        C  0.13611254  0.49823721  0.48860566    -0.03900
C598        C  0.15377983  0.53395337  0.48220928     0.03100
C599        C  0.25824136  0.50358924  0.48621458     0.10000
C600        C  0.22146412  0.43084941  0.49476415     0.35900
C601        C  0.13098579  0.56867121  0.47541147     0.39300
C602        C  0.27570827  0.51442001  0.52057792    -0.04300
C603        C  0.31550046  0.51435924  0.52212000     0.02900
C604        C  0.33807211  0.50285461  0.48949962    -0.03900
C605        C  0.32063488  0.49215623  0.45504168    -0.00100
C606        C  0.28079196  0.49282292  0.45331362    -0.02700
C607        C  0.25260588  0.52496565  0.55457292     0.36600
C608        C  0.34369039  0.47895357  0.42191361     0.40200
C609        C  0.33328954  0.52672879  0.55710476     0.39300
C610        C  0.26290272  0.48197215  0.41788420     0.36300
C611        C  0.21163219  0.57259773  0.47584569     0.37000
C612        C  0.14097646  0.42754987  0.50087414     0.40200
N613        N  0.34757425  0.53672837  0.58490951    -0.37900
N614        N  0.23405285  0.53329313  0.58163601    -0.39500
N615        N  0.36213257  0.46816067  0.39562525    -0.37200
N616        N  0.24859901  0.47328404  0.38963858    -0.39600
N617        N  0.23993279  0.40293384  0.49768099    -0.39400
N618        N  0.12688039  0.39837477  0.50748184    -0.37000
N619        N  0.11267901  0.59621870  0.46975473    -0.38000
N620        N  0.22597031  0.60206002  0.47183104    -0.39700
C621        C  0.03842673  0.28867122  0.02122711    -0.04600
C622        C  0.01342448  0.26789912  0.99887164     0.09500
C623        C  0.98781604  0.28794498  0.97521685    -0.02000
C624        C  0.98676338  0.32878370  0.97409327    -0.00300
C625        C  0.01176619  0.35044035  0.99679535    -0.03900
C626        C  0.03789252  0.32947338  0.02027485     0.03100
C627        C  0.01295537  0.22471061  0.00151390     0.10000
C628        C  0.96204669  0.26621772  0.95224588     0.35900
C629        C  0.06446499  0.34903217  0.04417621     0.39300
C630        C  0.98372157  0.20679082  0.02306684    -0.04300
C631        C  0.98283289  0.16618033  0.02546107     0.02900
C632        C  0.01109441  0.14315755  0.00608816    -0.03900
C633        C  0.04061214  0.16111872  0.98486126    -0.00100
C634        C  0.04167023  0.20177467  0.98280256    -0.02700
C635        C  0.95448439  0.23030840  0.04275843     0.36600
C636        C  0.06977613  0.13767120  0.96493057     0.40200
C637        C  0.95266938  0.14806953  0.04769581     0.39300
C638        C  0.07237095  0.22003967  0.96153442     0.36300
C639        C  0.06447641  0.26775688  0.04591007     0.37000
C640        C  0.95936208  0.34771115  0.94948428     0.40200
N641        N  0.92882263  0.13362654  0.06575301    -0.37900
N642        N  0.93111833  0.24920823  0.05822228    -0.39500
N643        N  0.09280265  0.11887772  0.94880141    -0.37200
N644        N  0.09710055  0.23453461  0.94486659    -0.39600
N645        N  0.94139747  0.24879542  0.93420567    -0.39400
N646        N  0.93732306  0.36241582  0.92979915    -0.37000
N647        N  0.08577582  0.36426759  0.06336904    -0.38000
N648        N  0.08525817  0.25100397  0.06544914    -0.39700
C649        C  0.98936601  0.71761454  0.96740536    -0.04600
C650        C  0.99594647  0.73707307  0.00234879     0.09500
C651        C  0.00462606  0.71554376  0.03579723    -0.02000
C652        C  0.00867620  0.67497880  0.03381264    -0.00300
C653        C  0.00120911  0.65540033  0.99914370    -0.03900
C654        C  0.99094649  0.67686440  0.96610317     0.03100
C655        C  0.99624284  0.78028528  0.00348116     0.10000
C656        C  0.00950348  0.73525393  0.07227712     0.35900
C657        C  0.98080326  0.65704491  0.93112158     0.39300
C658        C  0.96216322  0.80245254  0.00186153    -0.04300
C659        C  0.96296465  0.84316729  0.00288878     0.02900
C660        C  0.99765385  0.86177404  0.00672066    -0.03900
C661        C  0.03164440  0.83966659  0.00844391    -0.00100
C662        C  0.03102144  0.79908796  0.00619793    -0.02700
C663        C  0.92636476  0.78338471  0.99889834     0.36600
C664        C  0.06735287  0.85888610  0.01163784     0.40200
C665        C  0.92828572  0.86607986  0.99937682     0.39300
C666        C  0.06627807  0.77661332  0.00576833     0.36300
C667        C  0.98144110  0.73957141  0.93267053     0.37000
C668        C  0.02300148  0.65371623  0.06669309     0.40200
N669        N  0.90073489  0.88451691  0.99637277    -0.37900
N670        N  0.89779667  0.76821220  0.99630591    -0.39500
N671        N  0.09578078  0.87434134  0.01410173    -0.37200
N672        N  0.09433124  0.75857529  0.00532821    -0.39600
N673        N  0.01319630  0.75101279  0.10138040    -0.39400
N674        N  0.03532128  0.63706487  0.09269044    -0.37000
N675        N  0.97227335  0.64124724  0.90336006    -0.38000
N676        N  0.97513183  0.75714662  0.90499010    -0.39700
C677        C  0.80093131  0.50078672  0.94798092    -0.04600
C678        C  0.77774899  0.51130900  0.98044276     0.09500
C679        C  0.79450959  0.52202429  0.01513888    -0.02000
C680        C  0.83421121  0.52049283  0.01809913    -0.00300
C681        C  0.85782941  0.50929363  0.98577232    -0.03900
C682        C  0.84076658  0.50003553  0.95044040     0.03100
C683        C  0.73555585  0.50884972  0.97914994     0.10000
C684        C  0.77063505  0.53417505  0.04810796     0.35900
C685        C  0.86396628  0.49039342  0.91622024     0.39300
C686        C  0.71844325  0.47271174  0.98390290    -0.04300
C687        C  0.67865850  0.47032099  0.98557337     0.02900
C688        C  0.65557303  0.50420842  0.98292665    -0.03900
C689        C  0.67281923  0.54035333  0.97735496    -0.00100
C690        C  0.71265709  0.54262169  0.97557642    -0.02700
C691        C  0.74194679  0.43808330  0.98850330     0.36600
C692        C  0.64964169  0.57519223  0.97256341     0.40200
C693        C  0.66160261  0.43306015  0.99172826     0.39300
C694        C  0.73022640  0.57979296  0.97080830     0.36300
C695        C  0.78362488  0.49072316  0.91198235     0.37000
C696        C  0.85029437  0.52868497  0.05524700     0.40200
N697        N  0.64799832  0.40333562  0.99661441    -0.37900
N698        N  0.76081181  0.41056519  0.99227325    -0.39500
N699        N  0.63118549  0.60297935  0.96863315    -0.37200
N700        N  0.74433174  0.60943026  0.96726813    -0.39600
N701        N  0.75147020  0.54416615  0.07417682    -0.39400
N702        N  0.86295963  0.53512261  0.08496128    -0.37000
N703        N  0.88243748  0.48265793  0.88891882    -0.38000
N704        N  0.76979636  0.48265941  0.88328635    -0.39700
C705        C  0.21794256  0.51878313  0.97113055    -0.04600
C706        C  0.23570700  0.51110519  0.00634324     0.09500
C707        C  0.21354858  0.50398125  0.04007496    -0.02000
C708        C  0.17369349  0.50390186  0.03856154    -0.00300
C709        C  0.15559305  0.51050387  0.00296962    -0.03900
C710        C  0.17814038  0.51837598  0.96929616     0.03100
C711        C  0.27798393  0.50957657  0.00760529     0.10000
C712        C  0.23196154  0.49663668  0.07638833     0.35900
C713        C  0.16077321  0.52477869  0.93225633     0.39300
C714        C  0.29802691  0.54351130  0.01422319    -0.04300
C715        C  0.33792318  0.54200534  0.01494286     0.02900
C716        C  0.35804519  0.50674682  0.00766987    -0.03900
C717        C  0.33786407  0.47273934  0.00127854    -0.00100
C718        C  0.29796906  0.47414652  0.00153513    -0.02700
C719        C  0.27750321  0.58005755  0.01964532     0.36600
C720        C  0.35814705  0.43650598  0.99299177     0.40200
C721        C  0.35818074  0.57641933  0.02459639     0.39300
C722        C  0.27736833  0.43923843  0.99480888     0.36300
C723        C  0.24087893  0.52667003  0.93659828     0.37000
C724        C  0.15149037  0.49808382  0.07404168     0.40200
N725        N  0.37436317  0.60373466  0.03269445    -0.37900
N726        N  0.26105373  0.60922649  0.02364154    -0.39500
N727        N  0.37445498  0.40769861  0.98634116    -0.37200
N728        N  0.26090685  0.41140254  0.98944619    -0.39600
N729        N  0.24674270  0.49076988  0.10529746    -0.39400
N730        N  0.13383907  0.49348345  0.10237912    -0.37000
N731        N  0.14696357  0.52998216  0.90271029    -0.38000
N732        N  0.25927609  0.53301170  0.90914645    -0.39700
C733        C  0.96819143  0.49168281  0.70999358    -0.04600
C734        C  0.00479839  0.48754456  0.72467183     0.09500
C735        C  0.03655072  0.48238273  0.69944555    -0.02000
C736        C  0.03183406  0.48217918  0.65927293    -0.00300
C737        C  0.99527873  0.48757740  0.64436054    -0.03900
C738        C  0.96335923  0.49156779  0.66979247     0.03100
C739        C  0.01006816  0.48996527  0.76690202     0.10000
C740        C  0.07407347  0.47786469  0.71496584     0.35900
C741        C  0.92575169  0.49698612  0.65468690     0.39300
C742        C  0.00760339  0.45651482  0.78988112    -0.04300
C743        C  0.01153899  0.45910347  0.83009673     0.02900
C744        C  0.01645843  0.49557985  0.84758323    -0.03900
C745        C  0.02073955  0.52880362  0.82401183    -0.00100
C746        C  0.01754511  0.52586503  0.78371341    -0.02700
C747        C  0.00039995  0.41957334  0.77209460     0.36600
C748        C  0.02748278  0.56628666  0.84086308     0.40200
C749        C  0.01169897  0.42397511  0.85315962     0.39300
C750        C  0.02112832  0.55993124  0.75943524     0.36300
C751        C  0.93568699  0.49699641  0.73633603     0.37000
C752        C  0.06452224  0.47552811  0.63337551     0.40200
N753        N  0.01207703  0.39595863  0.87149601    -0.37900
N754        N  0.99444675  0.39015797  0.75793732    -0.39500
N755        N  0.03327895  0.59619195  0.85404650    -0.37200
N756        N  0.02399642  0.58703132  0.74001734    -0.39600
N757        N  0.10396173  0.47439275  0.72743441    -0.39400
N758        N  0.09053174  0.47015145  0.61270574    -0.37000
N759        N  0.89578951  0.50121353  0.64255535    -0.38000
N760        N  0.90979560  0.50130707  0.75737055    -0.39700
C761        C  0.98214950  0.52584089  0.20672693    -0.04600
C762        C  0.98734863  0.48984247  0.22495174     0.09500
C763        C  0.99391369  0.45594844  0.20305252    -0.02000
C764        C  0.99601000  0.45815537  0.16246554    -0.00300
C765        C  0.99149612  0.49445001  0.14394267    -0.03900
C766        C  0.98372835  0.52817726  0.16625201     0.03100
C767        C  0.98726896  0.48824023  0.26758479     0.10000
C768        C  0.99904896  0.41902470  0.22243666     0.35900
C769        C  0.97823489  0.56558833  0.14796451     0.39300
C770        C  0.95266750  0.48710372  0.28879613    -0.04300
C771        C  0.95247431  0.48860572  0.32936549     0.02900
C772        C  0.98696746  0.49164056  0.34847367    -0.03900
C773        C  0.02165562  0.49242708  0.32705915    -0.00100
C774        C  0.02172949  0.49082947  0.28654961    -0.02700
C775        C  0.91735005  0.48521256  0.26870654     0.36600
C776        C  0.05716867  0.49621621  0.34653942     0.40200
C777        C  0.91696236  0.48599780  0.35136388     0.39300
C778        C  0.05706539  0.49315406  0.26419773     0.36300
C779        C  0.97630766  0.56064470  0.22986632     0.37000
C780        C  0.00193643  0.42295907  0.13996212     0.40200
N781        N  0.88867684  0.48382937  0.36892437    -0.37900
N782        N  0.88923360  0.48394763  0.25257281    -0.39500
N783        N  0.08544278  0.49915748  0.36211173    -0.37200
N784        N  0.08515654  0.49517604  0.24628885    -0.39600
N785        N  0.00323897  0.38963156  0.23795467    -0.39400
N786        N  0.00666766  0.39487320  0.12208740    -0.37000
N787        N  0.97326058  0.59546103  0.13365995    -0.38000
N788        N  0.97186292  0.58829837  0.24844049    -0.39700
loop_ 
_geom_bond_atom_site_label_1 
_geom_bond_atom_site_label_2 
_geom_bond_distance 
_geom_bond_site_symmetry_2 
_ccdc_geom_bond_type 
O1           C17   1.274   1_655  A
O1           Zn7   1.989       .  S
C2           O18   1.275   1_455  A
C2           O15   1.271   1_556  A
C2          C625   1.515       .  S
O3           C16   1.272   1_554  A
O3          Cd10   2.060       .  S
O4           C22   1.273   1_455  A
O4          Cd13   2.043       .  S
O5           C19   1.275   1_556  A
O5           Cd9   2.075       .  S
O6           C17   1.274       .  A
O6           Cd9   2.051       .  S
Zn7          O18   2.032       .  S
Zn7          O20   2.035       .  S
Zn7          O12   1.937   1_655  S
O8           C19   1.274       .  A
O8          Cd13   2.070       .  S
Cd9          O11   2.078       .  S
Cd9          O12   1.991       .  S
Cd10         O14   2.061       .  S
Cd10         O23   2.039       .  S
Cd10         O12   1.981   1_654  S
O11          C21   1.275       .  A
O12         Cd13   1.986   1_556  S
Cd13         O15   2.058       .  S
O14          C21   1.273   1_654  A
C16          O20   1.275       .  A
C16         C681   1.498       .  S
C17         C744   1.479       .  S
C19         C709   1.497       .  S
C21         C653   1.482       .  S
C22          O23   1.272       .  A
C22         C765   1.472       .  S
O24          C40   1.274   1_455  A
O24         Zn30   2.025       .  S
C25          O41   1.273   1_655  A
C25          O38   1.274       .  A
C25         C737   1.471       .  S
O26          C39   1.272       .  A
O26         Cd33   2.060       .  S
O27          C45   1.275       .  A
O27         Cd36   2.081       .  S
O28          C42   1.274       .  A
O28         Cd32   2.065       .  S
O29          C40   1.274       .  A
O29         Cd32   2.076       .  S
Zn30         O41   1.987       .  S
Zn30         O43   2.024       .  S
Zn30         O35   1.938   1_455  S
O31          C42   1.277       .  A
O31         Cd36   2.090       .  S
Cd32         O34   2.051       .  S
Cd32         O35   1.995       .  S
Cd33         O37   2.025       .  S
Cd33         O46   2.059       .  S
Cd33         O35   1.993   1_455  S
O34          C44   1.274       .  A
O35         Cd36   2.001       .  S
Cd36         O38   2.053       .  S
O37          C44   1.270   1_455  A
C39          O43   1.274       .  A
C39         C597   1.485       .  S
C40         C541   1.496       .  S
C42         C569   1.488       .  S
C44         C772   1.464       .  S
C45          O46   1.271   1_655  A
C45         C513   1.481       .  S
O47          C63   1.273   1_554  A
O47         Zn53   2.019       .  S
C48          O64   1.273       .  A
C48          O61   1.270       .  A
C48         C485   1.466       .  S
O49          C62   1.275       .  A
O49         Cd56   2.077       .  S
O50          C68   1.272       .  A
O50         Cd59   2.059       .  S
O51          C65   1.273   1_556  A
O51         Cd55   2.070       .  S
O52          C63   1.273       .  A
O52         Cd55   2.065       .  S
Zn53         O64   1.996       .  S
Zn53         O66   2.024       .  S
Zn53         O58   1.943   1_554  S
O54          C65   1.273       .  A
O54         Cd59   2.066       .  S
Cd55         O57   2.040       .  S
Cd55         O58   1.992       .  S
Cd56         O60   2.050       .  S
Cd56         O69   2.085       .  S
Cd56         O58   1.997       .  S
O57          C67   1.272       .  A
O58         Cd59   1.988   1_556  S
Cd59         O61   2.021       .  S
O60          C67   1.274       .  A
C62          O66   1.275   1_556  A
C62         C688   1.490       .  S
C63         C429   1.482       .  S
C65         C716   1.485       .  S
C67         C457   1.466       .  S
C68          O69   1.276   1_554  A
C68         C401   1.483       .  S
O70          C86   1.274       .  A
O70         Zn76   2.032       .  S
C71          O87   1.273       .  A
C71          O84   1.273       .  A
C71         C464   1.469       .  S
O72          C85   1.271       .  A
O72         Cd79   2.058       .  S
O73          C91   1.275       .  A
O73         Cd82   2.082       .  S
O74          C88   1.274       .  A
O74         Cd78   2.072       .  S
O75          C86   1.274       .  A
O75         Cd78   2.081       .  S
Zn76         O87   1.985       .  S
Zn76         O89   2.036       .  S
Zn76         O81   1.940       .  S
O77          C88   1.275       .  A
O77         Cd82   2.075       .  S
Cd78         O80   2.047       .  S
Cd78         O81   1.998       .  S
Cd79         O83   2.031       .  S
Cd79         O92   2.065       .  S
Cd79         O81   1.991       .  S
O80          C90   1.273       .  A
O81         Cd82   2.003       .  S
Cd82         O84   2.051       .  S
O83          C90   1.271       .  A
C85          O89   1.275       .  A
C85         C576   1.488       .  S
C86         C373   1.484       .  S
C88         C604   1.481       .  S
C90         C492   1.467       .  S
C91          O92   1.272       .  A
C91         C345   1.480       .  S
N93          C98   1.360   1_455  A
N93          C97   1.353   1_455  A
N93         H125   1.038       .  S
N94         C101   1.350       .  A
N94         C102   1.356       .  A
N95         C100   1.351       .  A
N95          C99   1.359   1_455  A
N95         H126   1.039       .  S
N96         C103   1.357       .  A
N96         C104   1.352       .  A
C97         C105   1.388       .  A
C97         C113   1.421       .  A
C98         C114   1.424   1_665  A
C98         C106   1.386       .  A
C99         C107   1.384       .  A
C99         C116   1.418   1_655  A
C100        C115   1.420   1_556  A
C100        C108   1.389   1_455  A
C101        C113   1.418   1_456  A
C101        C109   1.389       .  A
C102        C116   1.416   1_565  A
C102        C110   1.384       .  A
C103        C111   1.385       .  A
C103        C114   1.420       .  A
C104        C112   1.388       .  A
C104        C115   1.419       .  A
C105        C106   1.378       .  A
C105        H117   1.082       .  S
C106        H118   1.082       .  S
C107        C108   1.377       .  A
C107        H119   1.082       .  S
C108        H120   1.082       .  S
C109        C110   1.373       .  A
C109        H121   1.082       .  S
C110        H122   1.082       .  S
C111        C112   1.376       .  A
C111        H123   1.082       .  S
C112        H124   1.082       .  S
C113        C660   1.491       .  S
C114        C317   1.524       .  S
C115        C632   1.497       .  S
C116        C296   1.517       .  S
N127        C132   1.353   1_455  A
N127        C131   1.360   1_455  A
N127        H159   1.039       .  S
N128        C135   1.354       .  A
N128        C136   1.350       .  A
N129        C134   1.357   1_455  A
N129        C133   1.352   1_455  A
N129        H160   1.039       .  S
N130        C137   1.352       .  A
N130        C138   1.357       .  A
C131        C139   1.386       .  A
C131        C147   1.423   1_655  A
C132        C148   1.421       .  A
C132        C140   1.388       .  A
C133        C141   1.388       .  A
C133        C150   1.417   1_655  A
C134        C149   1.418   1_645  A
C134        C142   1.385       .  A
C135        C147   1.417   1_545  A
C135        C143   1.386       .  A
C136        C150   1.413       .  A
C136        C144   1.387       .  A
C137        C145   1.388       .  A
C137        C148   1.419   1_455  A
C138        C146   1.384       .  A
C138        C149   1.419       .  A
C139        C140   1.378       .  A
C139        H151   1.082       .  S
C140        H152   1.082       .  S
C141        C142   1.377       .  A
C141        H153   1.082       .  S
C142        H154   1.082       .  S
C143        C144   1.375       .  A
C143        H155   1.082       .  S
C144        H156   1.082       .  S
C145        C146   1.377       .  A
C145        H157   1.082       .  S
C146        H158   1.082       .  S
C147        C289   1.519       .  S
C148        C548   1.496       .  S
C149        C324   1.516       .  S
C150        C520   1.491       .  S
N161        C166   1.353       .  A
N161        C165   1.360       .  A
N161        H193   1.035       .  S
N162        C169   1.357       .  A
N162        C170   1.351       .  A
N163        C168   1.360       .  A
N163        C167   1.353       .  A
N163        H194   1.036       .  S
N164        C171   1.352       .  A
N164        C172   1.357       .  A
C165        C173   1.386       .  A
C165        C181   1.422   1_565  A
C166        C182   1.420   1_556  A
C166        C174   1.388       .  A
C167        C175   1.388       .  A
C167        C184   1.419       .  A
C168        C183   1.423   1_545  A
C168        C176   1.386       .  A
C169        C181   1.419       .  A
C169        C177   1.385       .  A
C170        C184   1.418   1_556  A
C170        C178   1.388       .  A
C171        C179   1.387       .  A
C171        C182   1.419       .  A
C172        C180   1.385       .  A
C172        C183   1.420       .  A
C173        C174   1.378       .  A
C173        H185   1.082       .  S
C174        H186   1.082       .  S
C175        C176   1.379       .  A
C175        H187   1.082       .  S
C176        H188   1.082       .  S
C177        C178   1.375       .  A
C177        H189   1.082       .  S
C178        H190   1.082       .  S
C179        C180   1.376       .  A
C179        H191   1.082       .  S
C180        H192   1.082       .  S
C181        C240   1.520       .  S
C182        C436   1.496       .  S
C183        C261   1.522       .  S
C184        C408   1.494       .  S
N195        C200   1.358       .  A
N195        C199   1.352       .  A
N195        H227   1.040       .  S
N196        C203   1.351       .  A
N196        C204   1.355       .  A
N197        C202   1.354       .  A
N197        C201   1.359       .  A
N197        H228   1.040       .  S
N198        C205   1.357       .  A
N198        C206   1.352       .  A
C199        C207   1.388       .  A
C199        C215   1.418       .  A
C200        C216   1.419   1_545  A
C200        C208   1.385       .  A
C201        C209   1.385       .  A
C201        C218   1.422   1_565  A
C202        C217   1.423       .  A
C202        C210   1.389       .  A
C203        C215   1.417       .  A
C203        C211   1.387       .  A
C204        C218   1.418       .  A
C204        C212   1.385       .  A
C205        C213   1.384       .  A
C205        C216   1.419       .  A
C206        C214   1.388       .  A
C206        C217   1.420       .  A
C207        C208   1.377       .  A
C207        H219   1.082       .  S
C208        H220   1.082       .  S
C209        C210   1.379       .  A
C209        H221   1.082       .  S
C210        H222   1.082       .  S
C211        C212   1.376       .  A
C211        H223   1.082       .  S
C212        H224   1.082       .  S
C213        C214   1.376       .  A
C213        H225   1.082       .  S
C214        H226   1.082       .  S
C215        C352   1.496       .  S
C216        C268   1.518       .  S
C217        C380   1.504       .  S
C218        C233   1.518       .  S
C229        C230   1.415       .  A
C229        C234   1.419       .  A
C229        C247   1.450       .  S
C230        C235   1.519       .  S
C230        C231   1.415   1_545  A
C231        C232   1.419       .  A
C231        C236   1.449       .  S
C232        C233   1.416   1_565  A
C232        C248   1.450       .  S
C233        C234   1.417       .  A
C234        C237   1.450       .  S
C235        C238   1.414   1_545  A
C235        C242   1.415       .  A
C236        N253   1.157       .  T
C237        N255   1.157       .  T
C238        C239   1.419       .  A
C238        C243   1.450       .  S
C239        C240   1.417   1_565  A
C239        C245   1.450       .  S
C240        C241   1.418       .  A
C241        C242   1.420       .  A
C241        C244   1.450       .  S
C242        C246   1.450       .  S
C243        N250   1.157       .  T
C244        N251   1.157       .  T
C245        N249   1.157       .  T
C246        N252   1.157       .  T
C247        N256   1.157       .  T
C248        N254   1.157       .  T
C257        C258   1.416       .  A
C257        C262   1.420       .  A
C257        C275   1.450       .  S
C258        C263   1.521       .  S
C258        C259   1.416   1_565  A
C259        C260   1.420       .  A
C259        C264   1.450       .  S
C260        C261   1.418   1_545  A
C260        C276   1.450       .  S
C261        C262   1.418       .  A
C262        C265   1.450       .  S
C263        C266   1.417   1_565  A
C263        C270   1.416       .  A
C264        N281   1.157       .  T
C265        N283   1.157       .  T
C266        C267   1.419       .  A
C266        C271   1.450       .  S
C267        C268   1.417   1_545  A
C267        C273   1.450       .  S
C268        C269   1.416       .  A
C269        C270   1.419       .  A
C269        C272   1.450       .  S
C270        C274   1.450       .  S
C271        N278   1.157       .  T
C272        N279   1.157       .  T
C273        N277   1.157       .  T
C274        N280   1.157       .  T
C275        N284   1.157       .  T
C276        N282   1.157       .  T
C285        C286   1.414   1_545  A
C285        C290   1.419       .  A
C285        C303   1.450       .  S
C286        C291   1.517   1_565  S
C286        C287   1.415   1_655  A
C287        C288   1.418       .  A
C287        C292   1.450       .  S
C288        C289   1.417       .  A
C288        C304   1.450       .  S
C289        C290   1.419   1_465  A
C290        C293   1.451       .  S
C291        C294   1.415   1_545  A
C291        C298   1.415   1_655  A
C292        N309   1.157       .  T
C293        N311   1.157       .  T
C294        C295   1.419       .  A
C294        C299   1.449       .  S
C295        C296   1.416   1_665  A
C295        C301   1.450       .  S
C296        C297   1.416       .  A
C297        C298   1.418       .  A
C297        C300   1.450       .  S
C298        C302   1.450       .  S
C299        N306   1.157       .  T
C300        N307   1.157       .  T
C301        N305   1.157       .  T
C302        N308   1.157       .  T
C303        N312   1.157       .  T
C304        N310   1.157       .  T
C313        C314   1.415   1_655  A
C313        C318   1.420       .  A
C313        C331   1.450       .  S
C314        C319   1.522       .  S
C314        C315   1.416   1_545  A
C315        C316   1.419       .  A
C315        C320   1.450       .  S
C316        C317   1.418   1_565  A
C316        C332   1.450       .  S
C317        C318   1.419   1_455  A
C318        C321   1.450       .  S
C319        C322   1.418   1_445  A
C319        C326   1.417       .  A
C320        N337   1.157       .  T
C321        N339   1.157       .  T
C322        C323   1.420       .  A
C322        C327   1.449       .  S
C323        C324   1.415   1_655  A
C323        C329   1.450       .  S
C324        C325   1.415   1_565  A
C325        C326   1.419       .  A
C325        C328   1.450       .  S
C326        C330   1.450       .  S
C327        N334   1.157       .  T
C328        N335   1.157       .  T
C329        N333   1.157       .  T
C330        N336   1.157       .  T
C331        N340   1.157       .  T
C332        N338   1.157       .  T
C341        C342   1.412       .  A
C341        C346   1.411       .  A
C341        C359   1.450       .  S
C342        C347   1.499       .  S
C342        C343   1.413       .  A
C343        C344   1.412       .  A
C343        C348   1.450       .  S
C344        C345   1.411       .  A
C344        C360   1.450       .  S
C345        C346   1.412       .  A
C346        C349   1.451       .  S
C347        C350   1.412       .  A
C347        C354   1.413       .  A
C348        N365   1.157       .  T
C349        N367   1.157       .  T
C350        C351   1.409       .  A
C350        C355   1.450       .  S
C351        C352   1.412       .  A
C351        C357   1.451       .  S
C352        C353   1.413       .  A
C353        C354   1.412       .  A
C353        C356   1.451       .  S
C354        C358   1.450       .  S
C355        N362   1.157       .  T
C356        N363   1.157       .  T
C357        N361   1.157       .  T
C358        N364   1.157       .  T
C359        N368   1.157       .  T
C360        N366   1.157       .  T
C369        C370   1.413       .  A
C369        C374   1.412       .  A
C369        C387   1.450       .  S
C370        C375   1.502       .  S
C370        C371   1.413       .  A
C371        C372   1.414       .  A
C371        C376   1.450       .  S
C372        C373   1.412       .  A
C372        C388   1.450       .  S
C373        C374   1.412       .  A
C374        C377   1.451       .  S
C375        C378   1.412       .  A
C375        C382   1.412       .  A
C376        N393   1.157       .  T
C377        N395   1.157       .  T
C378        C379   1.413       .  A
C378        C383   1.450       .  S
C379        C380   1.416       .  A
C379        C385   1.450       .  S
C380        C381   1.414       .  A
C381        C382   1.412       .  A
C381        C384   1.450       .  S
C382        C386   1.450       .  S
C383        N390   1.157       .  T
C384        N391   1.157       .  T
C385        N389   1.157       .  T
C386        N392   1.157       .  T
C387        N396   1.157       .  T
C388        N394   1.157       .  T
C397        C398   1.411       .  A
C397        C402   1.411       .  A
C397        C415   1.450       .  S
C398        C403   1.496       .  S
C398        C399   1.411   1_554  A
C399        C400   1.411       .  A
C399        C404   1.450       .  S
C400        C401   1.413   1_556  A
C400        C416   1.451       .  S
C401        C402   1.414       .  A
C402        C405   1.451       .  S
C403        C406   1.411       .  A
C403        C410   1.411   1_554  A
C404        N421   1.157       .  T
C405        N423   1.157       .  T
C406        C407   1.411       .  A
C406        C411   1.450       .  S
C407        C408   1.412       .  A
C407        C413   1.450       .  S
C408        C409   1.411   1_554  A
C409        C410   1.410       .  A
C409        C412   1.450       .  S
C410        C414   1.450       .  S
C411        N418   1.157       .  T
C412        N419   1.157       .  T
C413        N417   1.157       .  T
C414        N420   1.157       .  T
C415        N424   1.157       .  T
C416        N422   1.157       .  T
C425        C426   1.411   1_556  A
C425        C430   1.410       .  A
C425        C443   1.450       .  S
C426        C431   1.496       .  S
C426        C427   1.411       .  A
C427        C428   1.411       .  A
C427        C432   1.450       .  S
C428        C429   1.413   1_554  A
C428        C444   1.451       .  S
C429        C430   1.412       .  A
C430        C433   1.451       .  S
C431        C434   1.411   1_554  A
C431        C438   1.411       .  A
C432        N449   1.157       .  T
C433        N451   1.157       .  T
C434        C435   1.411       .  A
C434        C439   1.450       .  S
C435        C436   1.412   1_556  A
C435        C441   1.450       .  S
C436        C437   1.412       .  A
C437        C438   1.410       .  A
C437        C440   1.450       .  S
C438        C442   1.450       .  S
C439        N446   1.157       .  T
C440        N447   1.157       .  T
C441        N445   1.157       .  T
C442        N448   1.157       .  T
C443        N452   1.157       .  T
C444        N450   1.157       .  T
C453        C454   1.409       .  A
C453        C458   1.403       .  A
C453        C471   1.451       .  S
C454        C459   1.478       .  S
C454        C455   1.408       .  A
C455        C456   1.403       .  A
C455        C460   1.451       .  S
C456        C457   1.413       .  A
C456        C472   1.452       .  S
C457        C458   1.411       .  A
C458        C461   1.452       .  S
C459        C462   1.408       .  A
C459        C466   1.407       .  A
C460        N477   1.157       .  T
C461        N479   1.157       .  T
C462        C463   1.405       .  A
C462        C467   1.452       .  S
C463        C464   1.414       .  A
C463        C469   1.452       .  S
C464        C465   1.413       .  A
C465        C466   1.402       .  A
C465        C468   1.452       .  S
C466        C470   1.451       .  S
C467        N474   1.157       .  T
C468        N475   1.157       .  T
C469        N473   1.157       .  T
C470        N476   1.157       .  T
C471        N480   1.157       .  T
C472        N478   1.157       .  T
C481        C482   1.406       .  A
C481        C486   1.399       .  A
C481        C499   1.453       .  S
C482        C487   1.473       .  S
C482        C483   1.407       .  A
C483        C484   1.404       .  A
C483        C488   1.451       .  S
C484        C485   1.413       .  A
C484        C500   1.451       .  S
C485        C486   1.414       .  A
C486        C489   1.454       .  S
C487        C490   1.407       .  A
C487        C494   1.406       .  A
C488        N505   1.157       .  T
C489        N507   1.158       .  T
C490        C491   1.402       .  A
C490        C495   1.452       .  S
C491        C492   1.414       .  A
C491        C497   1.452       .  S
C492        C493   1.413       .  A
C493        C494   1.401       .  A
C493        C496   1.452       .  S
C494        C498   1.452       .  S
C495        N502   1.157       .  T
C496        N503   1.157       .  T
C497        N501   1.157       .  T
C498        N504   1.157       .  T
C499        N508   1.157       .  T
C500        N506   1.157       .  T
C509        C510   1.411       .  A
C509        C514   1.410       .  A
C509        C527   1.450       .  S
C510        C515   1.494       .  S
C510        C511   1.411   1_455  A
C511        C512   1.411       .  A
C511        C516   1.451       .  S
C512        C513   1.413       .  A
C512        C528   1.451       .  S
C513        C514   1.412   1_655  A
C514        C517   1.451       .  S
C515        C518   1.411   1_455  A
C515        C522   1.412       .  A
C516        N533   1.157       .  T
C517        N535   1.157       .  T
C518        C519   1.409       .  A
C518        C523   1.450       .  S
C519        C520   1.411   1_655  A
C519        C525   1.450       .  S
C520        C521   1.411       .  A
C521        C522   1.410       .  A
C521        C524   1.450       .  S
C522        C526   1.450       .  S
C523        N530   1.157       .  T
C524        N531   1.157       .  T
C525        N529   1.157       .  T
C526        N532   1.157       .  T
C527        N536   1.157       .  T
C528        N534   1.157       .  T
C537        C538   1.410       .  A
C537        C542   1.413       .  A
C537        C555   1.451       .  S
C538        C543   1.500       .  S
C538        C539   1.411       .  A
C539        C540   1.412       .  A
C539        C544   1.451       .  S
C540        C541   1.418       .  A
C540        C556   1.451       .  S
C541        C542   1.418       .  A
C542        C545   1.451       .  S
C543        C546   1.413   1_655  A
C543        C550   1.413       .  A
C544        N561   1.157       .  T
C545        N563   1.157       .  T
C546        C547   1.412       .  A
C546        C551   1.450       .  S
C547        C548   1.412   1_455  A
C547        C553   1.450       .  S
C548        C549   1.411       .  A
C549        C550   1.411       .  A
C549        C552   1.450       .  S
C550        C554   1.450       .  S
C551        N558   1.157       .  T
C552        N559   1.157       .  T
C553        N557   1.157       .  T
C554        N560   1.157       .  T
C555        N564   1.157       .  T
C556        N562   1.157       .  T
C565        C566   1.412       .  A
C565        C570   1.413       .  A
C565        C583   1.450       .  S
C566        C571   1.500       .  S
C566        C567   1.411       .  A
C567        C568   1.412       .  A
C567        C572   1.450       .  S
C568        C569   1.415       .  A
C568        C584   1.451       .  S
C569        C570   1.414       .  A
C570        C573   1.451       .  S
C571        C574   1.412       .  A
C571        C578   1.411       .  A
C572        N589   1.157       .  T
C573        N591   1.157       .  T
C574        C575   1.412       .  A
C574        C579   1.450       .  S
C575        C576   1.414       .  A
C575        C581   1.451       .  S
C576        C577   1.416       .  A
C577        C578   1.412       .  A
C577        C580   1.452       .  S
C578        C582   1.450       .  S
C579        N586   1.157       .  T
C580        N587   1.158       .  T
C581        N585   1.157       .  T
C582        N588   1.157       .  T
C583        N592   1.157       .  T
C584        N590   1.157       .  T
C593        C594   1.412       .  A
C593        C598   1.411       .  A
C593        C611   1.450       .  S
C594        C599   1.497       .  S
C594        C595   1.411       .  A
C595        C596   1.410       .  A
C595        C600   1.451       .  S
C596        C597   1.414       .  A
C596        C612   1.451       .  S
C597        C598   1.414       .  A
C598        C601   1.451       .  S
C599        C602   1.412       .  A
C599        C606   1.412       .  A
C600        N617   1.157       .  T
C601        N619   1.157       .  T
C602        C603   1.410       .  A
C602        C607   1.451       .  S
C603        C604   1.412       .  A
C603        C609   1.451       .  S
C604        C605   1.413       .  A
C605        C606   1.412       .  A
C605        C608   1.451       .  S
C606        C610   1.450       .  S
C607        N614   1.157       .  T
C608        N615   1.157       .  T
C609        N613   1.157       .  T
C610        N616   1.157       .  T
C611        N620   1.157       .  T
C612        N618   1.157       .  T
C621        C622   1.405   1_554  A
C621        C626   1.412       .  A
C621        C639   1.453       .  S
C622        C627   1.498   1_556  S
C622        C623   1.407   1_455  A
C623        C624   1.413       .  A
C623        C628   1.453       .  S
C624        C625   1.429   1_655  A
C624        C640   1.452       .  S
C625        C626   1.431   1_556  A
C626        C629   1.452       .  S
C627        C630   1.412   1_455  A
C627        C634   1.412   1_554  A
C628        N645   1.157       .  T
C629        N647   1.158       .  T
C630        C631   1.409       .  A
C630        C635   1.451       .  S
C631        C632   1.413   1_655  A
C631        C637   1.451       .  S
C632        C633   1.414   1_554  A
C633        C634   1.410       .  A
C633        C636   1.451       .  S
C634        C638   1.451       .  S
C635        N642   1.157       .  T
C636        N643   1.157       .  T
C637        N641   1.157       .  T
C638        N644   1.157       .  T
C639        N648   1.157       .  T
C640        N646   1.158       .  T
C649        C650   1.412   1_556  A
C649        C654   1.410       .  A
C649        C667   1.450       .  S
C650        C655   1.496       .  S
C650        C651   1.412   1_655  A
C651        C652   1.409       .  A
C651        C656   1.451       .  S
C652        C653   1.413   1_554  A
C652        C668   1.450       .  S
C653        C654   1.413   1_455  A
C654        C657   1.450       .  S
C655        C658   1.413       .  A
C655        C662   1.413   1_655  A
C656        N673   1.157       .  T
C657        N675   1.157       .  T
C658        C659   1.410       .  A
C658        C663   1.450   1_554  S
C659        C660   1.411       .  A
C659        C665   1.450   1_554  S
C660        C661   1.410   1_655  A
C661        C662   1.407       .  A
C661        C664   1.451       .  S
C662        C666   1.451       .  S
C663        N670   1.157       .  T
C664        N671   1.157       .  T
C665        N669   1.157       .  T
C666        N672   1.157       .  T
C667        N676   1.157       .  T
C668        N674   1.157       .  T
C677        C678   1.410       .  A
C677        C682   1.414       .  A
C677        C695   1.451       .  S
C678        C683   1.499       .  S
C678        C679   1.409   1_556  A
C679        C680   1.411       .  A
C679        C684   1.452       .  S
C680        C681   1.421   1_554  A
C680        C696   1.452       .  S
C681        C682   1.420       .  A
C682        C685   1.451       .  S
C683        C686   1.411       .  A
C683        C690   1.411       .  A
C684        N701   1.157       .  T
C685        N703   1.158       .  T
C686        C687   1.411       .  A
C686        C691   1.451       .  S
C687        C688   1.415       .  A
C687        C693   1.451       .  S
C688        C689   1.417       .  A
C689        C690   1.413       .  A
C689        C692   1.451       .  S
C690        C694   1.451       .  S
C691        N698   1.157       .  T
C692        N699   1.158       .  T
C693        N697   1.157       .  T
C694        N700   1.157       .  T
C695        N704   1.157       .  T
C696        N702   1.158       .  T
C705        C706   1.409   1_556  A
C705        C710   1.411       .  A
C705        C723   1.451       .  S
C706        C711   1.497       .  S
C706        C707   1.409       .  A
C707        C708   1.412       .  A
C707        C712   1.451       .  S
C708        C709   1.420       .  A
C708        C724   1.451       .  S
C709        C710   1.420   1_554  A
C710        C713   1.451       .  S
C711        C714   1.411       .  A
C711        C718   1.411       .  A
C712        N729   1.157       .  T
C713        N731   1.157       .  T
C714        C715   1.411       .  A
C714        C719   1.450       .  S
C715        C716   1.414       .  A
C715        C721   1.451       .  S
C716        C717   1.414       .  A
C717        C718   1.410       .  A
C717        C720   1.452   1_554  S
C718        C722   1.450   1_554  S
C719        N726   1.157       .  T
C720        N727   1.157       .  T
C721        N725   1.157       .  T
C722        N728   1.157       .  T
C723        N732   1.157       .  T
C724        N730   1.158       .  T
C733        C734   1.409   1_655  A
C733        C738   1.405       .  A
C733        C751   1.451       .  S
C734        C739   1.480       .  S
C734        C735   1.407       .  A
C735        C736   1.403       .  A
C735        C740   1.451       .  S
C736        C737   1.414   1_455  A
C736        C752   1.453       .  S
C737        C738   1.412       .  A
C738        C741   1.451       .  S
C739        C742   1.406       .  A
C739        C746   1.407       .  A
C740        N757   1.157       .  T
C741        N759   1.157       .  T
C742        C743   1.404       .  A
C742        C747   1.451       .  S
C743        C744   1.417       .  A
C743        C749   1.453       .  S
C744        C745   1.417       .  A
C745        C746   1.405       .  A
C745        C748   1.451       .  S
C746        C750   1.452       .  S
C747        N754   1.157   1_455  T
C748        N755   1.157       .  T
C749        N753   1.157       .  T
C750        N756   1.157       .  T
C751        N760   1.157       .  T
C752        N758   1.158       .  T
C761        C762   1.405       .  A
C761        C766   1.400       .  A
C761        C779   1.453       .  S
C762        C767   1.474       .  S
C762        C763   1.406       .  A
C763        C764   1.404       .  A
C763        C768   1.452       .  S
C764        C765   1.416       .  A
C764        C780   1.452   1_655  S
C765        C766   1.415       .  A
C766        C769   1.451       .  S
C767        C770   1.408       .  A
C767        C774   1.407   1_655  A
C768        N785   1.157   1_655  T
C769        N787   1.157       .  T
C770        C771   1.403       .  A
C770        C775   1.451       .  S
C771        C772   1.412       .  A
C771        C777   1.452       .  S
C772        C773   1.413   1_655  A
C773        C774   1.401       .  A
C773        C776   1.453       .  S
C774        C778   1.452       .  S
C775        N782   1.157       .  T
C776        N783   1.157       .  T
C777        N781   1.157       .  T
C778        N784   1.157       .  T
C779        N788   1.157       .  T
C780        N786   1.158       .  T
