geometry optimzed in LAMMPS
_audit_creation_date              2020-11-30 
_audit_creation_method            'lammps2cif' 
_symmetry_space_group_name_H-M    'P1' 
_symmetry_Int_Tables_number       1 
_symmetry_cell_setting            triclinic 
loop_ 
_symmetry_equiv_pos_as_xyz 
  x,y,z 
_cell_length_a                    37.508164053422206 
_cell_length_b                    36.91829700707164 
_cell_length_c                    37.5673550056905 
_cell_angle_alpha                 87.92210044318782 
_cell_angle_beta                  88.49730138315765 
_cell_angle_gamma                 89.4026498485211 
loop_ 
_atom_site_label 
_atom_site_type_symbol 
_atom_site_fract_x 
_atom_site_fract_y 
_atom_site_fract_z 
_atom_site_charge 
O1          O  0.02921622  0.06910269  0.41511641    -0.88590
C2          C  0.48637645  0.06007691  0.10588611     1.11450
O3          O  0.98532690  0.02174570  0.46288952    -1.36400
O4          O  0.05556671  0.06212809  0.07854991    -0.90080
O5          O  0.00669166  0.52377062  0.38596655    -0.90740
O6          O  0.04264589  0.45812857  0.43922867    -0.79570
O7          O  0.04272841  0.06536791  0.49295116    -1.01650
C8          C  0.05530815  0.44280286  0.04001342     1.21490
O9          O  0.47428252  0.45832337  0.00303041    -1.36550
Mn10       Mn  0.45328076  0.01088459  0.00921837     1.82060
O11         O  0.04545509  0.44224154  0.00945167    -0.78640
O12         O  0.05942385  0.00423441  0.08116298    -0.88040
C13         C  0.43357915  0.98615228  0.08315206     1.12580
C14         C  0.06264557  0.03318456  0.09651272     1.07300
O15         O  0.40435879  0.00316560  0.48440781    -0.79580
O16         O  0.00266696  0.01624862  0.03327247    -1.33270
O17         O  0.42925082  0.47183945  0.44491848    -0.98790
C18         C  0.49376016  0.36498844  0.01690519     1.06010
Mn19       Mn  0.00970519  0.98451146  0.08331840     1.48570
O20         O  0.48397649  0.38038411  0.48842527    -0.87990
Mn21       Mn  0.46440866  0.50016078  0.41680158     1.49560
O22         O  0.45924132  0.09241167  0.43484788    -0.91870
C23         C  0.07045215  0.04968492  0.48531919     1.19210
C24         C  0.43349661  0.08088996  0.41764044     1.11270
Mn25       Mn  0.02348097  0.49113532  0.48499716     1.80970
O26         O  0.46197036  0.47080295  0.08559253    -0.97020
Mn27       Mn  0.00227698  0.07618412  0.46123054     1.49260
C28         C  0.02789220  0.04941600  0.38855823     1.07780
Mn29       Mn  0.47631477  0.43185281  0.05536299     1.49930
C30         C  0.40169952  0.41215266  0.02390693     1.10690
O31         O  0.48811707  0.45000934  0.42542209    -1.02820
O32         O  0.99248103  0.02646864  0.11901510    -0.92480
C33         C  0.02049196  0.44106004  0.42120455     1.21970
O34         O  0.03051264  0.44360681  0.06425493    -1.03210
O35         O  0.97440784  0.05765489  0.07413115    -0.90610
O36         O  0.42064173  0.41946217  0.05033569    -0.90210
O37         O  0.43091134  0.04769909  0.40872214    -0.90240
Mn38       Mn  0.01355267  0.07010622  0.03899534     1.47860
O39         O  0.42465700  0.00069143  0.05428997    -0.78710
C40         C  0.40227233  0.48437463  0.45878271     1.15020
O41         O  0.06989735  0.01615270  0.47861062    -0.77440
O42         O  0.43102010  0.06225115  0.51518435    -0.77060
Mn43       Mn  0.45566113  0.42855377  0.46371178     1.51060
O44         O  0.49103011  0.38350990  0.04064794    -0.89410
O45         O  0.98047309  0.08685380  0.50616495    -0.96940
O46         O  0.41357866  0.41407381  0.49262354    -0.91950
C47         C  0.44937314  0.09022108  0.51419827     1.12810
O48         O  0.03243987  0.19970881  0.32499226    -0.88590
C49         C  0.45741329  0.19638453  0.14777726     1.11450
O50         O  0.48224394  0.24528598  0.28226744    -1.36400
O51         O  0.03322129  0.18255352  0.16565438    -0.90080
O52         O  0.01979253  0.25318640  0.35050902    -0.90740
O53         O  0.04562274  0.30443221  0.29341590    -0.79570
O54         O  0.02991553  0.18254314  0.24858040    -1.01650
C55         C  0.05415548  0.30964221  0.19537592     1.21490
O56         O  0.47832350  0.30480756  0.23453873    -1.36550
Mn57       Mn  0.44838183  0.25831024  0.24005781     1.82060
O58         O  0.06066620  0.28458789  0.21677755    -0.78640
O59         O  0.05089945  0.23901473  0.16099678    -0.88040
C60         C  0.42536245  0.27817855  0.16734077     1.12580
C61         C  0.05332620  0.20732681  0.15098799     1.07300
O62         O  0.40458793  0.27609883  0.27020224    -0.79580
O63         O  0.99409846  0.23980016  0.21244441    -1.33270
O64         O  0.43698459  0.30692205  0.30278323    -0.98790
C65         C  0.98473966  0.38486472  0.19280085     1.06010
Mn66       Mn  0.00245993  0.26292855  0.15989996     1.48570
O67         O  0.46249818  0.38850448  0.21725066    -0.87990
Mn68       Mn  0.47293808  0.27745285  0.32681687     1.49560
O69         O  0.45567686  0.18433295  0.32752607    -0.91870
C70         C  0.06035249  0.19539649  0.24730783     1.19210
C71         C  0.43709472  0.20176760  0.34948698     1.11270
Mn72       Mn  0.02228699  0.26811455  0.25142966     1.80970
O73         O  0.45610467  0.28871869  0.15896013    -0.97020
Mn74       Mn  0.99375040  0.18756079  0.28902101     1.49260
C75         C  0.03963670  0.22501176  0.34576737     1.07780
Mn76       Mn  0.47922996  0.32790328  0.18274730     1.49930
C77         C  0.40237551  0.35471905  0.21499029     1.10690
O78         O  0.49340532  0.32126766  0.30236347    -1.02820
O79         O  0.97842754  0.21957805  0.13479900    -0.92480
C80         C  0.02441948  0.32695882  0.30945102     1.21970
O81         O  0.02701269  0.30770131  0.17600079    -1.03210
O82         O  0.95095513  0.19577345  0.18101790    -0.90610
O83         O  0.42441806  0.34849726  0.18954101    -0.90210
O84         O  0.44039878  0.23599782  0.35349846    -0.90240
Mn85       Mn  0.99397380  0.18355752  0.21145233     1.47860
O86         O  0.41802661  0.26805989  0.19852382    -0.78710
C87         C  0.40832535  0.29259689  0.29830459     1.15020
O88         O  0.06393931  0.22792369  0.25704474    -0.77440
O89         O  0.41731068  0.21392570  0.24559846    -0.77060
Mn90       Mn  0.45894589  0.34516037  0.26647731     1.51060
O91         O  0.50937978  0.36820782  0.20089040    -0.89410
O92         O  0.45817818  0.17426921  0.25246800    -0.96940
O93         O  0.40950193  0.34752755  0.24680214    -0.91950
C94         C  0.42553591  0.18189869  0.25220528     1.12810
O95         O  0.28862022  0.05469720  0.34841100    -0.88590
C96         C  0.30132973  0.99477184  0.15981395     1.11450
O97         O  0.24269713  0.01183801  0.30159932    -1.36400
O98         O  0.30867326  0.06846526  0.18663056    -0.90080
O99         O  0.22946701  0.05834688  0.35931534    -0.90740
O100        O  0.18467837  0.08037695  0.30809933    -0.79570
O101        O  0.30446279  0.05483937  0.27050881    -1.01650
C102        C  0.17839568  0.08925063  0.21597340     1.21490
O103        O  0.18429299  0.00977124  0.25683403    -1.36550
Mn104      Mn  0.22954877  0.97764006  0.26093811     1.82060
O105        O  0.20211211  0.09537966  0.23733680    -0.78640
O106        O  0.25275829  0.08573811  0.17986327    -0.88040
C107        C  0.21315297  0.45622877  0.19059328     1.12580
C108        C  0.28478601  0.08721730  0.16990130     1.07300
O109        O  0.21560972  0.43181782  0.29649619    -0.79580
O110        O  0.25009119  0.02429633  0.23032806    -1.33270
O111        O  0.18711066  0.46400310  0.33249944    -0.98790
C112        C  0.09565231  0.02239853  0.23691178     1.06010
Mn113      Mn  0.22900929  0.03677370  0.17926850     1.48570
O114        O  0.09932068  0.00400674  0.26614715    -0.87990
Mn115      Mn  0.20986077  0.00727380  0.34604322     1.49560
O116        O  0.29421909  0.97246126  0.34391691    -0.91870
C117        C  0.29776102  0.08689506  0.27238357     1.19210
C118        C  0.27988266  0.97263765  0.37479564     1.11270
Mn119      Mn  0.22187482  0.05459622  0.26944334     1.80970
O120        O  0.20345433  0.99030170  0.18075007    -0.97020
Mn121      Mn  0.29775546  0.01669993  0.30841715     1.49260
C122        C  0.26069566  0.07184998  0.35888628     1.07780
Mn123      Mn  0.16232705  0.01250139  0.20503136     1.49930
C124        C  0.13611902  0.43039727  0.24195920     1.10690
O125        O  0.17362569  0.02644788  0.31554303    -1.02820
O126        O  0.27427885  0.01386170  0.15117827    -0.92480
C127        C  0.16375161  0.05620988  0.32092662     1.21970
O128        O  0.18254771  0.06125671  0.19721829    -1.03210
O129        O  0.30681333  0.98615397  0.19155404    -0.90610
O130        O  0.14036094  0.45545997  0.21775060    -0.90210
O131        O  0.25050353  0.48510504  0.38133001    -0.90240
Mn132      Mn  0.30618415  0.02522491  0.22872661     1.47860
O133        O  0.22163299  0.44668308  0.22151962    -0.78710
C134        C  0.20003418  0.43456637  0.32637912     1.15020
O135        O  0.26457937  0.09526399  0.27656433    -0.77440
O136        O  0.27406359  0.44588002  0.26641913    -0.77060
Mn137      Mn  0.14994204  0.48404328  0.29904359     1.51060
O138        O  0.12155434  0.03862399  0.22405575    -0.89410
O139        O  0.30989803  0.98697842  0.26686668    -0.96940
O140        O  0.14135541  0.43522363  0.27483533    -0.91950
C141        C  0.30317744  0.95492967  0.26280946     1.12810
O142        O  0.33678135  0.22057323  0.44207870    -0.88590
C143        C  0.15501111  0.17130850  0.50802016     1.11450
O144        O  0.28744594  0.24946463  0.50178690    -1.36400
O145        O  0.18445298  0.18219118  0.43882674    -0.90080
O146        O  0.34444241  0.27762483  0.45674991    -0.90740
O147        O  0.29007300  0.32032523  0.44333761    -0.79570
O148        O  0.26369259  0.19789046  0.45152781    -1.01650
C149        C  0.19494847  0.31526469  0.43545380     1.21490
O150        O  0.23280325  0.30828329  0.01453628    -1.36550
Mn151      Mn  0.24014093  0.25733940  0.03931525     1.82060
O152        O  0.22153818  0.29655825  0.42881822    -0.78640
O153        O  0.18016820  0.24040767  0.43027295    -0.88040
C154        C  0.16262619  0.26042250  0.05910365     1.12580
C155        C  0.16994540  0.20996350  0.42335550     1.07300
O156        O  0.27112909  0.26968588  0.08488581    -0.79580
O157        O  0.21775476  0.23733834  0.49027715    -1.33270
O158        O  0.30281916  0.30449135  0.05235947    -0.98790
C159        C  0.20224455  0.38854527  0.51224555     1.06010
Mn160      Mn  0.16569929  0.25481843  0.47988303     1.48570
O161        O  0.23045992  0.38791506  0.53076045    -0.87990
Mn162      Mn  0.32564262  0.28930957  0.00851355     1.49560
O163        O  0.34274358  0.19186980  0.51792186    -0.91870
C164        C  0.26559910  0.20927210  0.42133660     1.19210
C165        C  0.36452250  0.21381353  0.02898766     1.11270
Mn166      Mn  0.25432631  0.27520587  0.46434096     1.80970
O167        O  0.15705818  0.27873809  0.03123549    -0.97020
Mn168      Mn  0.30257561  0.19807741  0.48303996     1.49260
C169        C  0.34558216  0.25317583  0.43402458     1.07780
Mn170      Mn  0.17871877  0.32705015  0.01598144     1.49930
C171        C  0.20821192  0.34546781  0.09381673     1.10690
O172        O  0.29352298  0.32541295  0.49647676    -1.02820
O173        O  0.14460027  0.20205843  0.49489077    -0.92480
C174        C  0.29997524  0.33957410  0.46852832     1.21970
O175        O  0.17625066  0.30626398  0.46270246    -1.03210
O176        O  0.18660711  0.16656336  0.51783713    -0.90610
O177        O  0.18328379  0.34360242  0.07081356    -0.90210
O178        O  0.36401842  0.24850689  0.02630974    -0.90240
Mn179      Mn  0.22500641  0.18157319  0.48067885     1.47860
O180        O  0.19385654  0.25836347  0.07103277    -0.78710
C181        C  0.30009727  0.28648117  0.07964588     1.15020
O182        O  0.26739102  0.24345446  0.41723270    -0.77440
O183        O  0.24725744  0.20777206  0.06360901    -0.77060
Mn184      Mn  0.26694833  0.34338002  0.03923935     1.51060
O185        O  0.19517999  0.37574996  0.99440729    -0.89410
O186        O  0.26613814  0.17454427  0.51518940    -0.96940
O187        O  0.24059253  0.33875203  0.08653400    -0.91950
C188        C  0.26202734  0.18116765  0.04998572     1.12810
C189        C  0.29111901  0.10632488  0.13465403    -0.05880
C190        C  0.30533324  0.14116580  0.13295797    -0.33310
C191        C  0.29839042  0.16488283  0.10369801     0.35940
C192        C  0.27809358  0.15368127  0.07481895    -0.06240
C193        C  0.26712019  0.11785641  0.07477472    -0.33210
C194        C  0.27275983  0.09453451  0.10444743     0.35850
H195        H  0.31869720  0.15129553  0.15575929     0.16220
O196        O  0.31004547  0.19980855  0.10440031    -0.60710
H197        H  0.25080068  0.10892138  0.05343841     0.16230
O198        O  0.25612311  0.06173411  0.10521873    -0.60800
H199        H  0.26993382  0.04689319  0.08808744     0.43230
H200        H  0.29239455  0.21198507  0.12005551     0.43180
C201        C  0.21051458  0.42645673  0.16626960    -0.05880
C202        C  0.23594416  0.39845934  0.16892254    -0.33310
C203        C  0.23204462  0.36674850  0.15050896     0.35940
C204        C  0.20246237  0.36286799  0.12840877    -0.06240
C205        C  0.17414111  0.38727794  0.13190613    -0.33210
C206        C  0.17911361  0.42060669  0.14813801     0.35850
H207        H  0.25916920  0.40129685  0.18517148     0.16220
O208        O  0.25800870  0.34032081  0.15291349    -0.60710
H209        H  0.14979095  0.38235014  0.11832358     0.16230
O210        O  0.15230931  0.44607191  0.14824081    -0.60800
H211        H  0.16043556  0.46570505  0.13130793     0.43230
H212        H  0.28001156  0.35126481  0.14214470     0.43180
C213        C  0.19184175  0.34757339  0.40892667    -0.05880
C214        C  0.22429244  0.35796876  0.39105895    -0.33310
C215        C  0.22613884  0.38365708  0.36291252     0.35940
C216        C  0.19589760  0.40320084  0.35277692    -0.06240
C217        C  0.16295745  0.39372670  0.36984241    -0.33210
C218        C  0.16058249  0.36512072  0.39663519     0.35850
H219        H  0.24928616  0.34516858  0.39794929     0.16220
O220        O  0.25817800  0.38957445  0.34546762    -0.60710
H221        H  0.13883393  0.40764506  0.36151918     0.16230
O222        O  0.12784682  0.35297290  0.40829291    -0.60800
H223        H  0.11452432  0.37503198  0.41517942     0.43230
H224        H  0.27099230  0.40602352  0.36070519     0.43180
C225        C  0.26496581  0.10950465  0.37048379    -0.05880
C226        C  0.24172467  0.13753898  0.35865325    -0.33310
C227        C  0.24531584  0.17325173  0.37017404     0.35940
C228        C  0.27141873  0.18096190  0.39481358    -0.06240
C229        C  0.29597569  0.15320951  0.40442266    -0.33210
C230        C  0.29316524  0.11814849  0.39228509     0.35850
H231        H  0.22052319  0.13168403  0.34079364     0.16220
O232        O  0.22157855  0.19960308  0.35943434    -0.60710
H233        H  0.31590584  0.15795762  0.42402938     0.16230
O234        O  0.31665276  0.09190077  0.40406730    -0.60800
H235        H  0.30606297  0.08214414  0.42685838     0.43230
H236        H  0.23309336  0.21176518  0.33822692     0.43180
C237        C  0.39375953  0.15626796  0.25809451    -0.05880
C238        C  0.35864267  0.17149424  0.26119916    -0.33310
C239        C  0.32753779  0.15024719  0.26706285     0.35940
C240        C  0.32996121  0.11224080  0.26936803    -0.06240
C241        C  0.36505142  0.09694922  0.26640765    -0.33210
C242        C  0.39626478  0.11823703  0.26112406     0.35850
H243        H  0.35492097  0.20059758  0.25913177     0.16220
O244        O  0.29490636  0.16714780  0.26954943    -0.60710
H245        H  0.36859138  0.06779425  0.26798198     0.16230
O246        O  0.42888022  0.10134284  0.25844201    -0.60800
H247        H  0.43761823  0.09952718  0.28313652     0.43230
H248        H  0.29125817  0.17186374  0.29521951     0.43180
C249        C  0.33039944  0.42916212  0.24938921    -0.05880
C250        C  0.35977330  0.44134028  0.22910730    -0.33310
C251        C  0.38055608  0.41711549  0.20960061     0.35940
C252        C  0.37237162  0.37964941  0.21088218    -0.06240
C253        C  0.34093666  0.36819498  0.22825597    -0.33210
C254        C  0.32073441  0.39214747  0.24841031     0.35850
H255        H  0.36654444  0.46984122  0.22797397     0.16220
O256        O  0.41010485  0.43003338  0.19111504    -0.60710
H257        H  0.33480210  0.33953381  0.23040168     0.16230
O258        O  0.29199724  0.37875098  0.26784980    -0.60800
H259        H  0.30198840  0.36904015  0.29048059     0.43230
H260        H  0.42359850  0.44460953  0.20780010     0.43180
C261        C  0.09179277  0.17055835  0.23799421    -0.05880
C262        C  0.09154055  0.13570823  0.25288912    -0.33310
C263        C  0.11896605  0.11026863  0.24595927     0.35940
C264        C  0.14564654  0.11560151  0.21854194    -0.06240
C265        C  0.14710167  0.15201484  0.20476355    -0.33170
C266        C  0.12125861  0.17930774  0.21484495     0.35850
H267        H  0.07112326  0.12894283  0.27295000     0.16220
O268        O  0.12235377  0.08238618  0.27015075    -0.60710
H269        H  0.16926611  0.15989072  0.18721735     0.16230
O270        O  0.12502770  0.21414571  0.20153586    -0.60800
H271        H  0.13949642  0.22641863  0.21914029     0.43230
H272        H  0.09801473  0.07504534  0.27837023     0.43180
C273        C  0.07560183  0.34246706  0.20319484    -0.05880
C274        C  0.06733635  0.35894898  0.23581859    -0.33310
C275        C  0.08758010  0.38622155  0.24925337     0.35940
C276        C  0.11940212  0.39606792  0.23213824    -0.06240
C277        C  0.13214156  0.37467082  0.20428121    -0.33210
C278        C  0.11020966  0.34852462  0.18903286     0.35850
H279        H  0.04330808  0.35208521  0.25022354     0.16220
O280        O  0.07505249  0.40441289  0.27822533    -0.60710
H281        H  0.15975622  0.37654929  0.19665997     0.16230
O282        O  0.12342440  0.32776474  0.16209421    -0.60800
H283        H  0.13649732  0.30751014  0.17412900     0.43230
H284        H  0.08811401  0.39365417  0.29871816     0.43180
C285        C  0.39382652  0.28121310  0.14417862    -0.05880
C286        C  0.35936533  0.27551295  0.16002493    -0.33310
C287        C  0.32839655  0.27671068  0.13990801     0.35940
C288        C  0.33114568  0.28539409  0.10344678    -0.06240
C289        C  0.36524662  0.29323202  0.08821515    -0.33210
C290        C  0.39639086  0.28932750  0.10768177     0.35850
H291        H  0.35605707  0.26977075  0.18839315     0.16220
O292        O  0.29559483  0.27156550  0.15636275    -0.60710
H293        H  0.36805359  0.30141935  0.06051326     0.16230
O294        O  0.42897201  0.29270176  0.09059271    -0.60800
H295        H  0.43478529  0.26821853  0.08193320     0.43230
H296        H  0.29708895  0.24809935  0.16999229     0.43180
C297        C  0.13328857  0.23928031  0.07829815    -0.05880
C298        C  0.09746731  0.24471590  0.06932732    -0.33310
C299        C  0.06974447  0.22744081  0.08928724     0.35940
C300        C  0.07720186  0.20388078  0.11888716    -0.06240
C301        C  0.11283440  0.19393629  0.12376974    -0.33210
C302        C  0.14074469  0.21192853  0.10473732     0.35850
H303        H  0.09066798  0.26395437  0.04806157     0.16220
O304        O  0.03507907  0.23647127  0.08184912    -0.60710
H305        H  0.11920229  0.17432118  0.14451077     0.16230
O306        O  0.17522694  0.20281324  0.11278532    -0.60800
H307        H  0.18046937  0.21652386  0.13423289     0.43230
H308        H  0.03115139  0.26101613  0.09122610     0.43180
C309        C  0.13584156  0.21026399  0.40478302    -0.05880
C310        C  0.13333505  0.19533075  0.37154187    -0.33310
C311        C  0.10243654  0.20051854  0.35167598     0.35940
C312        C  0.07329062  0.22096173  0.36522216    -0.06240
C313        C  0.07679706  0.23799745  0.39742243    -0.33210
C314        C  0.10780404  0.23340508  0.41684819     0.35850
H315        H  0.15611686  0.18147065  0.36005069     0.16220
O316        O  0.10165259  0.18683030  0.31832257    -0.60710
H317        H  0.05544869  0.25495598  0.40774999     0.16230
O318        O  0.11088817  0.25249651  0.44730144    -0.60800
H319        H  0.09191853  0.24337081  0.46409636     0.43230
H320        H  0.11727014  0.20290176  0.30318321     0.43180
C321        C  0.38273646  0.28747583  0.32831480    -0.05880
C322        C  0.36672159  0.25351202  0.33359655    -0.33310
C323        C  0.35382473  0.24184957  0.36747847     0.35940
C324        C  0.35615317  0.26473196  0.39656510    -0.06240
C325        C  0.36626241  0.30098504  0.38899029    -0.33210
C326        C  0.38086597  0.31197247  0.35584982     0.35850
H327        H  0.36768442  0.23428500  0.31249351     0.16220
O328        O  0.34111959  0.20737777  0.37220464    -0.60710
H329        H  0.36339283  0.32120570  0.40860674     0.16230
O330        O  0.39382138  0.34646709  0.35080354    -0.60800
H331        H  0.41712717  0.34623111  0.36270761     0.43230
H332        H  0.32564681  0.20318859  0.35174384     0.43180
C333        C  0.32898505  0.36641618  0.47052494    -0.05880
C334        C  0.31824499  0.39963324  0.48544746    -0.33310
C335        C  0.33824310  0.41536341  0.51243377     0.35940
C336        C  0.36681374  0.39497120  0.02646938    -0.06240
C337        C  0.37120838  0.36005554  0.01379350    -0.33210
C338        C  0.36082132  0.35117598  0.48463279     0.35850
H339        H  0.29365491  0.41265200  0.47714763     0.16220
O340        O  0.33038587  0.44986903  0.52254165    -0.60710
H341        H  0.39459969  0.34450941  0.02182116     0.16230
O342        O  0.38303951  0.32959579  0.46518326    -0.60800
H343        H  0.39667177  0.35374424  0.94503819     0.43230
H344        H  0.31201866  0.44700253  0.54186803     0.43180
C345        C  0.43339470  0.12618299  0.02628307    -0.05880
C346        C  0.44823381  0.15891925  0.51393947    -0.33310
C347        C  0.42995337  0.19159514  0.52112501     0.35940
C348        C  0.39594034  0.19176447  0.04038333    -0.06240
C349        C  0.38753340  0.15933792  0.05917719    -0.33210
C350        C  0.40455019  0.12653176  0.05112393     0.35850
H351        H  0.47137890  0.15959265  0.49607591     0.16220
O352        O  0.44203005  0.22355992  0.50561586    -0.60710
H353        H  0.36365914  0.15824888  0.07581738     0.16230
O354        O  0.39069390  0.09452090  0.06496704    -0.60800
H355        H  0.38132159  0.09923104  0.08931788     0.43230
H356        H  0.42447014  0.23088044  0.48742195     0.43180
C357        C  0.17285176  0.42572009  0.02576294    -0.05880
C358        C  0.15763008  0.42739131  0.06031184    -0.33310
C359        C  0.11989985  0.43331712  0.06749462     0.35940
C360        C  0.09689892  0.44135759  0.03935100    -0.06240
C361        C  0.11480759  0.44740071  0.00533330    -0.33210
C362        C  0.13355081  0.38299675  0.51674263     0.35850
H363        H  0.17647041  0.42495237  0.08063798     0.16220
O364        O  0.10602162  0.43146394  0.10150556    -0.60710
H365        H  0.07666982  0.37818412  0.52027050     0.16230
O366        O  0.13480265  0.35430745  0.49501074    -0.60800
H367        H  0.13463764  0.36559552  0.47082319     0.43230
H368        H  0.09395835  0.40776082  0.10408508     0.43180
C369        C  0.10150292  0.07344070  0.48227278    -0.05880
C370        C  0.09443082  0.10659215  0.46438031    -0.33310
C371        C  0.10752033  0.13904329  0.47640443     0.35940
C372        C  0.13356376  0.13839468  0.50273102    -0.06240
C373        C  0.14175411  0.11094984  0.01744769    -0.33210
C374        C  0.12476394  0.07945458  0.00708966     0.35850
H375        H  0.07363610  0.10810092  0.44491472     0.16220
O376        O  0.09255148  0.17130435  0.46464813    -0.60710
H377        H  0.16327434  0.10840084  0.03608306     0.16230
O378        O  0.13257543  0.04679960  0.02379345    -0.60800
H379        H  0.14944094  0.03452556  0.00730293     0.43230
H380        H  0.08429345  0.16815103  0.44009020     0.43180
C381        C  0.36727579  0.47615140  0.44459305    -0.05880
C382        C  0.36472620  0.44697493  0.42187943    -0.33310
C383        C  0.33397905  0.44200712  0.40282440     0.35940
C384        C  0.30518659  0.46640619  0.40648747    -0.06240
C385        C  0.30587109  0.49240892  0.43280382    -0.33210
C386        C  0.33694911  0.49781093  0.45151860     0.35850
H387        H  0.38738758  0.42916053  0.41719488     0.16220
O388        O  0.33398225  0.41600020  0.37767297    -0.60710
H389        H  0.28411847  0.51176289  0.43552056     0.16230
O390        O  0.33864532  0.52683420  0.47319296    -0.60800
H391        H  0.32608885  0.51906223  0.49568889     0.43230
H392        H  0.32908216  0.39292328  0.39117581     0.43180
C393        C  0.12907405  0.05812474  0.34013090    -0.05880
C394        C  0.11125549  0.02474983  0.34541702    -0.33310
C395        C  0.07566896  0.02287873  0.35406516     0.35940
C396        C  0.05768822  0.05424153  0.36354367    -0.06240
C397        C  0.07530699  0.08810612  0.36031613    -0.33210
C398        C  0.11099091  0.08994472  0.34824058     0.35850
H399        H  0.12456018  0.99898282  0.34265092     0.16220
O400        O  0.05912961  0.49078224  0.35629300    -0.60710
H401        H  0.06203161  0.11258137  0.36901950     0.16230
O402        O  0.12832700  0.12218810  0.34580281    -0.60800
H403        H  0.14570221  0.12067096  0.36528775     0.43230
H404        H  0.07097196  0.47601803  0.37521592     0.43180
C405        C  0.06374520  0.03136946  0.13677241    -0.05880
C406        C  0.06064234  0.99717426  0.15503208    -0.33310
C407        C  0.05995311  0.99375805  0.19251862     0.35940
C408        C  0.06469274  0.02432478  0.21299435    -0.06240
C409        C  0.06002131  0.05852350  0.19521118    -0.33210
C410        C  0.06191682  0.06232459  0.15766702     0.35850
H411        H  0.06262919  0.47088804  0.14190851     0.16220
O412        O  0.06104645  0.45583069  0.21098980    -0.60710
H413        H  0.06168665  0.08282949  0.21026019     0.16230
O414        O  0.06309701  0.09641470  0.14196742    -0.60800
H415        H  0.08859550  0.10328483  0.14176720     0.43230
H416        H  0.07145691  0.43838686  0.19404796     0.43180
C417        C  0.40397117  0.98423333  0.11012217    -0.05880
C418        C  0.38031187  0.45412032  0.11269652    -0.33310
C419        C  0.34566752  0.45618139  0.12764324     0.35940
C420        C  0.33224204  0.99098765  0.13563211    -0.06240
C421        C  0.35434379  0.02106616  0.13165003    -0.33210
C422        C  0.39023860  0.01750109  0.12135479     0.35850
H423        H  0.38843820  0.42888893  0.10206877     0.16220
O424        O  0.32633942  0.42514355  0.13381743    -0.60710
H425        H  0.34453287  0.04753067  0.13837151     0.16230
O426        O  0.41140575  0.04744574  0.11963896    -0.60800
H427        H  0.40414642  0.06203917  0.14028169     0.43230
H428        H  0.31245837  0.42233453  0.11200163     0.43180
C429        C  0.41231905  0.17801922  0.37088989    -0.05880
C430        C  0.39880307  0.14775105  0.35377797    -0.33310
C431        C  0.39800030  0.11344073  0.37095684     0.35940
C432        C  0.40828382  0.11025348  0.40641697    -0.06240
C433        C  0.40888245  0.14240565  0.42595843    -0.33210
C434        C  0.41347465  0.17615205  0.40803823     0.35850
H435        H  0.39547681  0.14931279  0.32554363     0.16220
O436        O  0.39426223  0.08323086  0.35126129    -0.60710
H437        H  0.41386738  0.14061412  0.45415258     0.16230
O438        O  0.42444829  0.20533727  0.42623501    -0.60800
H439        H  0.45057594  0.20201664  0.42856406     0.43230
H440        H  0.36817710  0.08042526  0.34892904     0.43180
C441        C  0.02872906  0.41313851  0.39158066    -0.05880
C442        C  0.01519376  0.41919218  0.35704121    -0.33310
C443        C  0.51158897  0.39113607  0.32961322     0.35940
C444        C  0.03224774  0.35747161  0.33600913    -0.06240
C445        C  0.04539702  0.35091254  0.37090011    -0.33210
C446        C  0.04288383  0.37757479  0.39826166     0.35850
H447        H  0.49359186  0.44161864  0.35164871     0.16220
O448        O  0.49292202  0.39786960  0.29910729    -0.60710
H449        H  0.05524124  0.32401633  0.37802228     0.16230
O450        O  0.05161970  0.36733411  0.43239493    -0.60800
H451        H  0.02954625  0.35679867  0.44335131     0.43230
H452        H  0.46747350  0.39452798  0.30620245     0.43180
C453        C  0.99053225  0.37083590  0.06713811    -0.05880
C454        C  0.45537720  0.36828611  0.08865889    -0.33310
C455        C  0.45224951  0.37985099  0.12509988     0.35940
C456        C  0.98308015  0.38483105  0.14962968    -0.06240
C457        C  0.01622256  0.37754589  0.13098122    -0.33210
C458        C  0.02055273  0.36761964  0.09435397     0.35850
H459        H  0.43106164  0.36155643  0.07570081     0.16220
O460        O  0.41876007  0.38785174  0.13777838    -0.60710
H461        H  0.04044476  0.37765472  0.14597688     0.16230
O462        O  0.05388661  0.35651627  0.08299441    -0.60800
H463        H  0.05968442  0.37077834  0.06081743     0.43230
H464        H  0.40268445  0.36836286  0.13053403     0.43180
C465        C  0.45518071  0.16179180  0.13145401    -0.05880
C466        C  0.97843319  0.15530944  0.10417501    -0.33310
C467        C  0.99338683  0.12173555  0.09921784     0.35940
C468        C  0.48627020  0.09429955  0.12257390    -0.06240
C469        C  0.46184788  0.09875337  0.15040473    -0.33210
C470        C  0.44406246  0.13163972  0.15319362     0.35850
H471        H  0.98790562  0.17795135  0.08744851     0.16220
O472        O  0.01918518  0.11901383  0.07293458    -0.60710
H473        H  0.45418183  0.07589845  0.16773454     0.16230
O474        O  0.41792570  0.13495439  0.17911057    -0.60800
H475        H  0.39514806  0.13241614  0.16665569     0.43230
H476        H  0.00920371  0.12999403  0.05079086     0.43180
O477        O  0.02570609  0.07415364  0.91517363    -0.88590
C478        C  0.48548651  0.06017800  0.60611612     1.11450
O479        O  0.98381482  0.02397208  0.96264162    -1.36400
O480        O  0.05814130  0.06128888  0.57889068    -0.90080
O481        O  0.00729483  0.52485635  0.88930746    -0.90740
O482        O  0.04149329  0.45410471  0.94283264    -0.79570
O483        O  0.03935405  0.07074688  0.99305067    -1.01650
C484        C  0.05780289  0.44412345  0.53779062     1.21490
O485        O  0.47574581  0.45908342  0.50306336    -1.36550
Mn486      Mn  0.45314053  0.01051947  0.50903094     1.82060
O487        O  0.05978258  0.46074669  0.50879088    -0.78640
O488        O  0.06485279  0.00374236  0.58010879    -0.88040
C489        C  0.43312564  0.98597878  0.58299483     1.12580
C490        C  0.06800635  0.03242889  0.59569105     1.07300
O491        O  0.40469239  0.00352731  0.98505734    -0.79580
O492        O  0.00399212  0.01450076  0.53362536    -1.33270
O493        O  0.42803152  0.47111531  0.94377347    -0.98790
C494        C  0.49376404  0.36516116  0.51911199     1.06010
Mn495      Mn  0.01332531  0.98804056  0.58471183     1.48570
O496        O  0.48349037  0.37992951  0.98640167    -0.87990
Mn497      Mn  0.46407597  0.49940840  0.91636917     1.49560
O498        O  0.45786544  0.09250253  0.93494675    -0.91870
C499        C  0.06775917  0.05726366  0.98433669     1.19210
C500        C  0.43224112  0.08047150  0.91786122     1.11270
Mn501      Mn  0.02141526  0.48504436  0.98930838     1.80970
O502        O  0.46456998  0.47119649  0.58579670    -0.97020
Mn503      Mn  0.99830459  0.07909952  0.96160391     1.49260
C504        C  0.02666764  0.05296721  0.88963835     1.07780
Mn505      Mn  0.47795628  0.43261105  0.55511593     1.49930
C506        C  0.40243029  0.41358579  0.52417293     1.10690
O507        O  0.48760753  0.44931351  0.92514212    -1.02820
O508        O  0.99858515  0.03160972  0.61845389    -0.92480
C509        C  0.02024951  0.43970547  0.92196000     1.21970
O510        O  0.02875204  0.44439165  0.55578943    -1.03210
O511        O  0.97690369  0.06248666  0.57478266    -0.90610
O512        O  0.42195087  0.42097922  0.55020157    -0.90210
O513        O  0.43019839  0.04727772  0.90891019    -0.90240
Mn514      Mn  0.01653307  0.06857893  0.53840988     1.47860
O515        O  0.42426374  0.00038560  0.55402421    -0.78710
C516        C  0.40083681  0.48366844  0.95729171     1.15020
O517        O  0.06874731  0.02460929  0.97549757    -0.77440
O518        O  0.43091272  0.06263067  0.01580296    -0.77060
Mn519      Mn  0.45470770  0.42804321  0.96292672     1.51060
O520        O  0.49138239  0.38329318  0.54285426    -0.89410
O521        O  0.97670893  0.08733279  0.00710179    -0.96940
O522        O  0.41311478  0.41347332  0.99239959    -0.91950
C523        C  0.44893906  0.09084437  0.01446623     1.12810
O524        O  0.03232889  0.19588355  0.82435505    -0.88590
C525        C  0.45757233  0.19708489  0.64761827     1.11450
O526        O  0.48210814  0.24437842  0.78273113    -1.36400
O527        O  0.03194186  0.18433290  0.66413747    -0.90080
O528        O  0.01898983  0.24865616  0.85088999    -0.90740
O529        O  0.04558411  0.30083069  0.79613955    -0.79570
O530        O  0.02895637  0.18165916  0.74687142    -1.01650
C531        C  0.05424424  0.30876465  0.69464016     1.21490
O532        O  0.47833636  0.30438341  0.73583919    -1.36550
Mn533      Mn  0.44847136  0.25792347  0.74050564     1.82060
O534        O  0.05963730  0.28491066  0.71795416    -0.78640
O535        O  0.04818142  0.24134104  0.65679634    -0.88040
C536        C  0.42551708  0.27878706  0.66803688     1.12580
C537        C  0.05123840  0.20909934  0.64839987     1.07300
O538        O  0.40440773  0.27489425  0.77064319    -0.79580
O539        O  0.99314663  0.24063653  0.71208521    -1.33270
O540        O  0.43608450  0.30550689  0.80409120    -0.98790
C541        C  0.98933352  0.38711177  0.71060795     1.06010
Mn542      Mn  0.00011323  0.26595092  0.65956849     1.48570
O543        O  0.46381734  0.38865225  0.72047751    -0.87990
Mn544      Mn  0.47257808  0.27619651  0.82756440     1.49560
O545        O  0.45536230  0.18303987  0.82736127    -0.91870
C546        C  0.05950947  0.19420341  0.74610528     1.19210
C547        C  0.43677430  0.20029861  0.84945667     1.11270
Mn548      Mn  0.02150068  0.26677184  0.75265519     1.80970
O549        O  0.45628767  0.28934712  0.65967470    -0.97020
Mn550      Mn  0.99324818  0.18505369  0.78781485     1.49260
C551        C  0.03900499  0.22087117  0.84578114     1.07780
Mn552      Mn  0.47980774  0.32793745  0.68418199     1.49930
C553        C  0.40320421  0.35539939  0.71601166     1.10690
O554        O  0.49346556  0.32032788  0.80365364    -1.02820
O555        O  0.97481048  0.22443487  0.63279180    -0.92480
C556        C  0.02541793  0.32421697  0.81223023     1.21970
O557        O  0.02588554  0.30837223  0.67739759    -1.03210
O558        O  0.95003121  0.19916836  0.67963234    -0.90610
O559        O  0.42561530  0.34937182  0.69087144    -0.90210
O560        O  0.44011537  0.23446570  0.85380239    -0.90240
Mn561      Mn  0.99287212  0.18439197  0.70971761     1.47860
O562        O  0.41821580  0.26851987  0.69915754    -0.78710
C563        C  0.40758703  0.29110921  0.79895406     1.15020
O564        O  0.06328982  0.22649148  0.75632298    -0.77440
O565        O  0.41741208  0.21366830  0.74517571    -0.77060
Mn566      Mn  0.45831363  0.34405178  0.76851826     1.51060
O567        O  0.50989565  0.36715713  0.70359375    -0.89410
O568        O  0.45807934  0.17382974  0.75214051    -0.96940
O569        O  0.40942214  0.34732716  0.74784425    -0.91950
C570        C  0.42547388  0.18164223  0.75180737     1.12810
O571        O  0.28809158  0.05846457  0.84793451    -0.88590
C572        C  0.30136178  0.99391467  0.66074682     1.11450
O573        O  0.24350081  0.01243083  0.80275847    -1.36400
O574        O  0.30783849  0.06790052  0.68690763    -0.90080
O575        O  0.22899151  0.06010832  0.86008240    -0.90740
O576        O  0.18410437  0.07941033  0.80816300    -0.79570
O577        O  0.30373456  0.05582053  0.77027990    -1.01650
C578        C  0.17717610  0.08713122  0.71652833     1.21490
O579        O  0.18542270  0.00799165  0.75873933    -1.36550
Mn580      Mn  0.23128022  0.97753758  0.76241688     1.82060
O581        O  0.20100350  0.09391841  0.73754680    -0.78640
O582        O  0.25162113  0.08430775  0.68006779    -0.88040
C583        C  0.21434021  0.45760429  0.68654417     1.12580
C584        C  0.28365252  0.08591562  0.67002638     1.07300
O585        O  0.21198876  0.43067624  0.79360241    -0.79580
O586        O  0.25038453  0.02388012  0.73113340    -1.33270
O587        O  0.18378986  0.46415879  0.82783642    -0.98790
C588        C  0.09724671  0.01762445  0.73911490     1.06010
Mn589      Mn  0.22838686  0.03503072  0.68018858     1.48570
O590        O  0.10009614  0.99793083  0.76754925    -0.87990
Mn591      Mn  0.21067060  0.00799881  0.84753104     1.49560
O592        O  0.29703022  0.97596143  0.84585087    -0.91870
C593        C  0.29699967  0.08781654  0.77174402     1.19210
C594        C  0.28152165  0.97491009  0.87619469     1.11270
Mn595      Mn  0.22183089  0.05407564  0.77005775     1.80970
O596        O  0.20351564  0.98823174  0.68248536    -0.97020
Mn597      Mn  0.29843428  0.01895589  0.80907057     1.49260
C598        C  0.25979719  0.07474338  0.85907493     1.07780
Mn599      Mn  0.16278888  0.00926145  0.70782577     1.49930
C600        C  0.13478422  0.43446258  0.73112415     1.10690
O601        O  0.17286756  0.02541308  0.81791173    -1.02820
O602        O  0.27386239  0.01237546  0.65213368    -0.92480
C603        C  0.16289349  0.05561332  0.82138797     1.21970
O604        O  0.18146713  0.05876551  0.69827943    -1.03210
O605        O  0.30751022  0.98596977  0.69253992    -0.90610
O606        O  0.13945288  0.45967538  0.70737835    -0.90210
O607        O  0.24696589  0.48349206  0.87982139    -0.90240
Mn608      Mn  0.30640701  0.02551392  0.72928676     1.47860
O609        O  0.22111739  0.44727413  0.71779296    -0.78710
C610        C  0.19566264  0.43400965  0.82322213     1.15020
O611        O  0.26379203  0.09597746  0.77617258    -0.77440
O612        O  0.27206673  0.44489541  0.76510457    -0.77060
Mn613      Mn  0.14868171  0.48524251  0.79194902     1.51060
O614        O  0.12337915  0.03491153  0.72930553    -0.89410
O615        O  0.31156865  0.98805836  0.76812126    -0.96940
O616        O  0.14119203  0.43823355  0.76408625    -0.91950
C617        C  0.30506338  0.95584639  0.76450312     1.12810
O618        O  0.33364102  0.22339500  0.94316301    -0.88590
C619        C  0.15202840  0.17789162  0.01050427     1.11450
O620        O  0.28481931  0.25393555  0.00220692    -1.36400
O621        O  0.18215403  0.18789638  0.94131155    -0.90080
O622        O  0.34196263  0.28092377  0.95606479    -0.90740
O623        O  0.28671011  0.32469252  0.94345527    -0.79570
O624        O  0.26035128  0.20266796  0.95321503    -1.01650
C625        C  0.18898484  0.32139290  0.93745789     1.21490
O626        O  0.23485034  0.30234459  0.51311108    -1.36550
Mn627      Mn  0.24207702  0.25191100  0.53789253     1.82060
O628        O  0.21863179  0.30714367  0.93218816    -0.78640
O629        O  0.17646815  0.24636567  0.93255197    -0.88040
C630        C  0.16390761  0.25546129  0.55655156     1.12580
C631        C  0.16761640  0.21529865  0.92541361     1.07300
O632        O  0.27218093  0.26490112  0.58412760    -0.79580
O633        O  0.21473552  0.24325337  0.99216072    -1.33270
O634        O  0.30327893  0.30102233  0.55239066    -0.98790
C635        C  0.20288194  0.39866014  0.01628181     1.06010
Mn636      Mn  0.16254709  0.26090337  0.98258736     1.48570
O637        O  0.23213280  0.39317324  0.03288872    -0.87990
Mn638      Mn  0.32692427  0.28597488  0.50894543     1.49560
O639        O  0.33912617  0.19479147  0.01928634    -0.91870
C640        C  0.26187313  0.21354327  0.92281176     1.19210
C641        C  0.36675266  0.21164422  0.52954491     1.11270
Mn642      Mn  0.25102956  0.28088901  0.96555262     1.80970
O643        O  0.15883916  0.27324091  0.52826144    -0.97020
Mn644      Mn  0.29925940  0.20200401  0.98440341     1.49260
C645        C  0.34237150  0.25576723  0.93403755     1.07780
Mn646      Mn  0.18163152  0.32058012  0.51226536     1.49930
C647        C  0.20760592  0.34286815  0.59053597     1.10690
O648        O  0.29287785  0.32967819  0.99661571    -1.02820
O649        O  0.14186319  0.20858837  0.99734414    -0.92480
C650        C  0.29795489  0.34362914  0.96817270     1.21970
O651        O  0.17191321  0.31267142  0.96588950    -1.03210
O652        O  0.18355653  0.17285779  0.02038091    -0.90610
O653        O  0.18388242  0.33920855  0.56670716    -0.90210
O654        O  0.36522579  0.24627821  0.52782977    -0.90240
Mn655      Mn  0.22192323  0.18716115  0.98298997     1.47860
O656        O  0.19508251  0.25252079  0.56858008    -0.78710
C657        C  0.30059388  0.28287437  0.57956068     1.15020
O658        O  0.26245845  0.24791142  0.91817003    -0.77440
O659        O  0.24911277  0.20246932  0.56168011    -0.77060
Mn660      Mn  0.26701715  0.33911899  0.53868581     1.51060
O661        O  0.20256466  0.36598549  0.48913805    -0.89410
O662        O  0.26302296  0.17933135  0.01719626    -0.96940
O663        O  0.23987828  0.33391919  0.58577425    -0.91950
C664        C  0.26450650  0.17627587  0.54797251     1.12810
C665        C  0.28997748  0.10385237  0.63445297    -0.05880
C666        C  0.30617749  0.13769059  0.63157856    -0.33310
C667        C  0.30046284  0.16058281  0.60152888     0.35940
C668        C  0.28013187  0.14901187  0.57286930    -0.06240
C669        C  0.26718157  0.11388898  0.57409811    -0.33210
C670        C  0.27106713  0.09171467  0.60479389     0.35850
H671        H  0.31995251  0.14796806  0.65406288     0.16220
O672        O  0.31303116  0.19526652  0.60130426    -0.60710
H673        H  0.25038331  0.10506762  0.55308023     0.16230
O674        O  0.25219820  0.06015633  0.60709937    -0.60800
H675        H  0.26399316  0.04405247  0.58967779     0.43230
H676        H  0.29666437  0.20802493  0.61781732     0.43180
C677        C  0.21213340  0.42824828  0.66113325    -0.05880
C678        C  0.23091128  0.39579480  0.66871753    -0.33310
C679        C  0.22582431  0.36504428  0.64905667     0.35940
C680        C  0.20117122  0.36596052  0.62132584    -0.06240
C681        C  0.18032814  0.39721714  0.61609241    -0.33210
C682        C  0.18718926  0.42898539  0.63408189     0.35850
H683        H  0.24994181  0.39421257  0.68996532     0.16220
O684        O  0.24577752  0.33440008  0.65641570    -0.60710
H685        H  0.15897979  0.39683439  0.59764383     0.16230
O686        O  0.16693349  0.45939899  0.62755742    -0.60800
H687        H  0.18207278  0.47529002  0.61174464     0.43230
H688        H  0.27065019  0.34061189  0.64908886     0.43180
C689        C  0.17828271  0.34653010  0.90606697    -0.05880
C690        C  0.19490949  0.33995223  0.87239355    -0.33310
C691        C  0.19975159  0.36724657  0.84534296     0.35940
C692        C  0.18731082  0.40286431  0.85026996    -0.06240
C693        C  0.16698849  0.40861459  0.88223050    -0.33210
C694        C  0.16184085  0.38067504  0.90942232     0.35850
H695        H  0.20694635  0.31365500  0.86780498     0.16220
O696        O  0.21802538  0.35883249  0.81462165    -0.60710
H697        H  0.15562883  0.43521452  0.88665210     0.16230
O698        O  0.14218278  0.38725756  0.93978889    -0.60800
H699        H  0.12020111  0.40004362  0.93203084     0.43230
H700        H  0.24348853  0.35825808  0.82105997     0.43180
C701        C  0.26314429  0.11262673  0.87117694    -0.05880
C702        C  0.24009096  0.14071792  0.85889003    -0.33310
C703        C  0.24286940  0.17648994  0.87098011     0.35940
C704        C  0.26792681  0.18435277  0.89672213    -0.06240
C705        C  0.29194912  0.15633459  0.90725734    -0.33210
C706        C  0.29013374  0.12135066  0.89440796     0.35850
H707        H  0.21968914  0.13485916  0.84012162     0.16220
O708        O  0.21942073  0.20276030  0.85943096    -0.60710
H709        H  0.31101735  0.16091509  0.92773001     0.16230
O710        O  0.31352308  0.09522983  0.90667593    -0.60800
H711        H  0.30200277  0.08459076  0.92864682     0.43230
H712        H  0.23174964  0.21521317  0.83884924     0.43180
C713        C  0.39350092  0.15632863  0.75762946    -0.05880
C714        C  0.35856155  0.17191563  0.76125856    -0.33310
C715        C  0.32724938  0.15095981  0.76693894     0.35940
C716        C  0.32930381  0.11295228  0.76852876    -0.06240
C717        C  0.36422816  0.09731762  0.76503103    -0.33210
C718        C  0.39562853  0.11828406  0.75990495     0.35850
H719        H  0.35515285  0.20107443  0.75976833     0.16220
O720        O  0.29481333  0.16814688  0.77005778    -0.60710
H721        H  0.36751059  0.06812679  0.76606026     0.16230
O722        O  0.42803928  0.10108355  0.75661925    -0.60800
H723        H  0.43682955  0.09836921  0.78125037     0.43230
H724        H  0.29145135  0.17235077  0.79586254     0.43180
C725        C  0.32890442  0.42875835  0.74850614    -0.05880
C726        C  0.35959469  0.44157164  0.73093316    -0.33310
C727        C  0.38186159  0.41805601  0.71236051     0.35940
C728        C  0.37362513  0.38066104  0.71163956    -0.06240
C729        C  0.34122333  0.36858978  0.72644511    -0.33210
C730        C  0.31946021  0.39189867  0.74569942     0.35850
H731        H  0.36641045  0.47001795  0.73137082     0.16220
O732        O  0.41276076  0.43158242  0.69693161    -0.60710
H733        H  0.33512875  0.33990520  0.72723751     0.16230
O734        O  0.28961721  0.37790927  0.76275982    -0.60800
H735        H  0.29775391  0.36946923  0.78658528     0.43230
H736        H  0.42494543  0.44490433  0.71553939     0.43180
C737        C  0.09077301  0.16915355  0.73705210    -0.05880
C738        C  0.08978561  0.13429374  0.75170163    -0.33310
C739        C  0.11724442  0.10877300  0.74560450     0.35940
C740        C  0.14442206  0.11362102  0.71852855    -0.06240
C741        C  0.14643032  0.15005745  0.70477355    -0.33170
C742        C  0.12084148  0.17769154  0.71466549     0.35850
H743        H  0.06897865  0.12772452  0.77142299     0.16220
O744        O  0.12036528  0.08197253  0.77089962    -0.60710
H745        H  0.16894806  0.15772976  0.68760896     0.16230
O746        O  0.12544277  0.21262192  0.70191408    -0.60800
H747        H  0.13984596  0.22432093  0.71995242     0.43230
H748        H  0.09592827  0.07368287  0.77774747     0.43180
C749        C  0.07730602  0.34084001  0.69970754    -0.05880
C750        C  0.07799399  0.35218933  0.73487903    -0.33310
C751        C  0.09856359  0.38007872  0.74577119     0.35940
C752        C  0.11856455  0.40018388  0.72045824    -0.06240
C753        C  0.11873139  0.38925232  0.68466530    -0.33210
C754        C  0.10040832  0.35799435  0.67471691     0.35850
H755        H  0.05966391  0.34112745  0.75386597     0.16220
O756        O  0.09532293  0.38986599  0.78063439    -0.60710
H757        H  0.13164959  0.40566194  0.66440682     0.16230
O758        O  0.10421903  0.34565281  0.64090269    -0.60800
H759        H  0.12537515  0.32933601  0.64151411     0.43230
H760        H  0.11176711  0.37341756  0.79390560     0.43180
C761        C  0.39394229  0.28126730  0.64481702    -0.05880
C762        C  0.35960029  0.27398928  0.66041157    -0.33310
C763        C  0.32873403  0.27403519  0.64010703     0.35940
C764        C  0.33140974  0.28283172  0.60369040    -0.06240
C765        C  0.36528144  0.29220040  0.58874310    -0.33210
C766        C  0.39637620  0.28995349  0.60843647     0.35850
H767        H  0.35632699  0.26782157  0.68870957     0.16220
O768        O  0.29605412  0.26756912  0.65633370    -0.60710
H769        H  0.36800208  0.30025858  0.56101361     0.16230
O770        O  0.42882628  0.29553062  0.59164991    -0.60800
H771        H  0.43615147  0.27157202  0.58265234     0.43230
H772        H  0.29806690  0.24356917  0.66890738     0.43180
C773        C  0.13381953  0.23615561  0.57630873    -0.05880
C774        C  0.09835012  0.24202834  0.56633798    -0.33310
C775        C  0.06985685  0.22661095  0.58658264     0.35940
C776        C  0.07616920  0.20433869  0.61735428    -0.06240
C777        C  0.11141054  0.19388698  0.62363617    -0.33210
C778        C  0.14011119  0.21023842  0.60439139     0.35850
H779        H  0.09243790  0.26026211  0.54397727     0.16220
O780        O  0.03560262  0.23621828  0.57805273    -0.60710
H781        H  0.11684088  0.17519776  0.64542319     0.16230
O782        O  0.17418316  0.20107834  0.61391687    -0.60800
H783        H  0.17916033  0.21621119  0.63446796     0.43230
H784        H  0.03203770  0.26115057  0.58658130     0.43180
C785        C  0.13449777  0.21372687  0.90580216    -0.05880
C786        C  0.13261720  0.19492495  0.87450400    -0.33310
C787        C  0.10169899  0.19698182  0.85428547     0.35940
C788        C  0.07212202  0.21788373  0.86588523    -0.06240
C789        C  0.07492205  0.23812388  0.89635317    -0.33210
C790        C  0.10581376  0.23674088  0.91588447     0.35850
H791        H  0.15579621  0.18037407  0.86481870     0.16220
O792        O  0.10126655  0.17987158  0.82253134    -0.60710
H793        H  0.05314028  0.25538158  0.90521682     0.16230
O794        O  0.10810104  0.25871283  0.94450559    -0.60800
H795        H  0.08931470  0.25056133  0.96196647     0.43230
H796        H  0.11557845  0.19540910  0.80560603     0.43180
C797        C  0.38114076  0.28609349  0.82820922    -0.05880
C798        C  0.36668750  0.25152664  0.83465451    -0.33310
C799        C  0.35277257  0.24114738  0.86852619     0.35940
C800        C  0.35248456  0.26594985  0.89618416    -0.06240
C801        C  0.36011477  0.30244900  0.88675657    -0.33210
C802        C  0.37610296  0.31224021  0.85390011     0.35850
H803        H  0.36972486  0.23114886  0.81475228     0.16220
O804        O  0.34147505  0.20631272  0.87474146    -0.60710
H805        H  0.35412744  0.32370997  0.90474270     0.16230
O806        O  0.38703540  0.34724825  0.84726068    -0.60800
H807        H  0.40965213  0.34935258  0.86010647     0.43230
H808        H  0.32654846  0.20043918  0.85433369     0.43180
C809        C  0.32691296  0.37033308  0.96818467    -0.05880
C810        C  0.31709716  0.40255984  0.98547644    -0.33310
C811        C  0.33765408  0.41560666  0.01338735     0.35940
C812        C  0.36748394  0.39637826  0.52754756    -0.06240
C813        C  0.37230525  0.36052254  0.51805443    -0.33210
C814        C  0.35930890  0.35430560  0.97962412     0.35850
H815        H  0.29256918  0.41655415  0.97855208     0.16220
O816        O  0.33084111  0.44944611  0.02588986    -0.60710
H817        H  0.39561397  0.34595111  0.52780957     0.16230
O818        O  0.38114199  0.33531821  0.95725310    -0.60800
H819        H  0.40095566  0.34620547  0.45380701     0.43230
H820        H  0.31284454  0.44570421  0.04543824     0.43180
C821        C  0.43438072  0.12534115  0.52662588    -0.05880
C822        C  0.44662138  0.15984260  0.01296035    -0.33310
C823        C  0.42780298  0.19248748  0.01947449     0.35940
C824        C  0.39823341  0.19083341  0.54216989    -0.06240
C825        C  0.38990298  0.15851082  0.56103595    -0.33210
C826        C  0.40577190  0.12554581  0.55171644     0.35850
H827        H  0.46986084  0.16055532  0.99522526     0.16220
O828        O  0.43979219  0.22438011  0.00373293    -0.60710
H829        H  0.36641568  0.15769299  0.57810418     0.16230
O830        O  0.39105065  0.09339624  0.56429232    -0.60800
H831        H  0.37809743  0.09797251  0.58707614     0.43230
H832        H  0.42188190  0.23190231  0.98595882     0.43180
C833        C  0.16505525  0.40283024  0.52407500    -0.05880
C834        C  0.15918078  0.43510703  0.54209132    -0.33310
C835        C  0.12409496  0.44638160  0.55291831     0.35940
C836        C  0.09299787  0.42568185  0.54617871    -0.06240
C837        C  0.09929290  0.39344570  0.52879857    -0.33210
C838        C  0.15143738  0.44029276  0.99884664     0.35850
H839        H  0.18175193  0.45177406  0.54784729     0.16220
O840        O  0.12077727  0.47873960  0.56910245    -0.60710
H841        H  0.10017503  0.45633202  0.98220295     0.16230
O842        O  0.16604876  0.44723108  0.96550070    -0.60800
H843        H  0.17352831  0.47291839  0.96536554     0.43230
H844        H  0.11345755  0.47225666  0.59403557     0.43180
C845        C  0.09757536  0.08224611  0.98215393    -0.05880
C846        C  0.08881204  0.11625988  0.96707000    -0.33310
C847        C  0.10249208  0.14781227  0.98028255     0.35940
C848        C  0.13026690  0.14552703  0.00479915    -0.06240
C849        C  0.14396415  0.10448398  0.51805274    -0.33210
C850        C  0.12721600  0.07230758  0.50882347     0.35850
H851        H  0.06676259  0.11868140  0.94900664     0.16220
O852        O  0.08667918  0.18064481  0.97161013    -0.60710
H853        H  0.16429520  0.10306543  0.53802741     0.16230
O854        O  0.13376197  0.04075608  0.52802153    -0.60800
H855        H  0.15038207  0.02665577  0.51278617     0.43230
H856        H  0.07580196  0.17884421  0.94797331     0.43180
C857        C  0.36567925  0.47582771  0.94243062    -0.05880
C858        C  0.36290155  0.44683461  0.91943135    -0.33310
C859        C  0.33181676  0.44175843  0.90066953     0.35940
C860        C  0.30296139  0.46609764  0.90435543    -0.06240
C861        C  0.30410950  0.49243363  0.93036278    -0.33210
C862        C  0.33527163  0.49751769  0.94931582     0.35850
H863        H  0.38546957  0.42891564  0.91472412     0.16220
O864        O  0.33114059  0.41507630  0.87621884    -0.60710
H865        H  0.28234708  0.51174530  0.93319628     0.16230
O866        O  0.33684250  0.52607801  0.97156505    -0.60800
H867        H  0.32499736  0.51749239  0.99417158     0.43230
H868        H  0.32003134  0.39398848  0.88911708     0.43180
C869        C  0.12767263  0.05886599  0.83925068    -0.05880
C870        C  0.10689676  0.02726850  0.84047205    -0.33310
C871        C  0.07160136  0.02737034  0.85007945     0.35940
C872        C  0.05685259  0.05820907  0.86485013    -0.06240
C873        C  0.07735147  0.09039372  0.86506026    -0.33210
C874        C  0.11278270  0.09059977  0.85192397     0.35850
H875        H  0.11756791  0.00111861  0.83468096     0.16220
O876        O  0.04940490  0.49995763  0.84204283    -0.60710
H877        H  0.06673839  0.11446253  0.87735549     0.16230
O878        O  0.13352053  0.12038335  0.85445425    -0.60800
H879        H  0.14684505  0.11609543  0.87671797     0.43230
H880        H  0.05878092  0.48088528  0.85867730     0.43180
C881        C  0.06949200  0.02935448  0.63597203    -0.05880
C882        C  0.06640589  0.99456662  0.65307099    -0.33310
C883        C  0.06560366  0.98951803  0.69062260     0.35940
C884        C  0.06853552  0.01944183  0.71232622    -0.06240
C885        C  0.06401541  0.05413245  0.69537643    -0.33210
C886        C  0.06672821  0.05938089  0.65796055     0.35850
H887        H  0.05669391  0.47414089  0.63721804     0.16220
O888        O  0.05446194  0.46014230  0.70669844    -0.60710
H889        H  0.06415576  0.07787078  0.71132360     0.16230
O890        O  0.06715787  0.09398892  0.64344596    -0.60800
H891        H  0.09243826  0.10153812  0.64384120     0.43230
H892        H  0.06583964  0.44238654  0.69075980     0.43180
C893        C  0.40347702  0.98410106  0.60992295    -0.05880
C894        C  0.38219300  0.45435640  0.61213722    -0.33310
C895        C  0.34742237  0.45688822  0.62658802     0.35940
C896        C  0.33197994  0.99025595  0.63618616    -0.06240
C897        C  0.35372234  0.02056251  0.63174133    -0.33210
C898        C  0.38953798  0.01734732  0.62100232     0.35850
H899        H  0.38969584  0.42915157  0.60107612     0.16220
O900        O  0.32707795  0.42632940  0.63119967    -0.60710
H901        H  0.34368802  0.04694391  0.63846100     0.16230
O902        O  0.41042124  0.04752108  0.61868913    -0.60800
H903        H  0.40231684  0.06318225  0.63824889     0.43230
H904        H  0.31387729  0.42461804  0.60880620     0.43180
C905        C  0.41185165  0.17647665  0.87056049    -0.05880
C906        C  0.39855565  0.14616446  0.85335945    -0.33310
C907        C  0.39678212  0.11211218  0.87091356     0.35940
C908        C  0.40646299  0.10920461  0.90656603    -0.06240
C909        C  0.40662059  0.14148381  0.92589074    -0.33210
C910        C  0.41199587  0.17499677  0.90776701     0.35850
H911        H  0.39603678  0.14739179  0.82501299     0.16220
O912        O  0.39298633  0.08173104  0.85147637    -0.60710
H913        H  0.41095120  0.13987634  0.95421948     0.16230
O914        O  0.42260479  0.20430123  0.92597852    -0.60800
H915        H  0.44866851  0.20096976  0.92882626     0.43230
H916        H  0.36687593  0.07864445  0.84967096     0.43180
C917        C  0.02984243  0.41186869  0.89250493    -0.05880
C918        C  0.01545765  0.41683954  0.85830689    -0.33310
C919        C  0.51277973  0.39041024  0.83009307     0.35940
C920        C  0.03458844  0.35561941  0.83741798    -0.06240
C921        C  0.04978047  0.35048605  0.87161459    -0.33210
C922        C  0.04743711  0.37768748  0.89856328     0.35850
H923        H  0.49537030  0.44138774  0.85144326     0.16220
O924        O  0.49497647  0.39737082  0.79910262    -0.60710
H925        H  0.06142988  0.32431321  0.87859347     0.16230
O926        O  0.06012633  0.36919788  0.93172459    -0.60800
H927        H  0.04150103  0.35392375  0.94373843     0.43230
H928        H  0.46931023  0.39476525  0.80563211     0.43180
C929        C  0.98628903  0.38012005  0.58674950    -0.05880
C930        C  0.45583295  0.37133811  0.59170245    -0.33310
C931        C  0.45343645  0.38295548  0.62823960     0.35940
C932        C  0.98562659  0.39549678  0.66883534    -0.06240
C933        C  0.01690718  0.38852208  0.64819466    -0.33210
C934        C  0.01854768  0.37851522  0.61184610     0.35850
H935        H  0.43110935  0.36516504  0.57925788     0.16220
O936        O  0.42046702  0.39236336  0.64132509    -0.60710
H937        H  0.04170102  0.38922899  0.66161482     0.16230
O938        O  0.05093623  0.36887864  0.59721767    -0.60800
H939        H  0.06704684  0.38928428  0.60144977     0.43230
H940        H  0.40345980  0.37372245  0.63402976     0.43180
C941        C  0.45511435  0.16259912  0.63113180    -0.05880
C942        C  0.98211946  0.15858164  0.60467833    -0.33310
C943        C  0.99779469  0.12514059  0.60053425     0.35940
C944        C  0.48517119  0.09450039  0.62271801    -0.06240
C945        C  0.46012733  0.09935212  0.64995325    -0.33210
C946        C  0.44291718  0.13260052  0.65246808     0.35850
H947        H  0.99165424  0.18119125  0.58802784     0.16220
O948        O  0.02352893  0.12160821  0.57420525    -0.60710
H949        H  0.45168577  0.07662703  0.66707592     0.16230
O950        O  0.41628269  0.13639407  0.67780133    -0.60800
H951        H  0.39376048  0.13426556  0.66482071     0.43230
H952        H  0.01256549  0.13001748  0.55158401     0.43180
O953        O  0.02592606  0.57276649  0.41374643    -0.88590
C954        C  0.48391529  0.56009244  0.10589453     1.11450
O955        O  0.98380325  0.52356610  0.46172627    -1.36400
O956        O  0.05428052  0.56075969  0.08350557    -0.90080
O957        O  0.00578462  0.02354491  0.38529541    -0.90740
O958        O  0.04078058  0.95413733  0.44045055    -0.79570
O959        O  0.03918430  0.57097883  0.49166140    -1.01650
C960        C  0.05737008  0.94271357  0.03721000     1.21490
O961        O  0.47482626  0.95884020  0.00307013    -1.36550
Mn962      Mn  0.45258526  0.51023911  0.00865525     1.82060
O963        O  0.05953020  0.96035161  0.00878915    -0.78640
O964        O  0.06282581  0.50347536  0.08467931    -0.88040
C965        C  0.43235072  0.48614936  0.08262318     1.12580
C966        C  0.06511137  0.53229558  0.10021724     1.07300
O967        O  0.40543136  0.50362263  0.48523067    -0.79580
O968        O  0.00233544  0.51345921  0.03661781    -1.33270
O969        O  0.42848846  0.97155224  0.44423273    -0.98790
C970        C  0.49355523  0.86507129  0.01792044     1.06010
Mn971      Mn  0.01136818  0.48738315  0.08787061     1.48570
O972        O  0.48376079  0.88017818  0.48687677    -0.87990
Mn973      Mn  0.46421628  0.99991821  0.41664418     1.49560
O974        O  0.45825382  0.59279466  0.43511887    -0.91870
C975        C  0.06767619  0.55739357  0.48336228     1.19210
C976        C  0.43273399  0.58083202  0.41785257     1.11270
Mn977      Mn  0.02165994  0.98539963  0.48651547     1.80970
O978        O  0.46323009  0.97086702  0.08572077    -0.97020
Mn979      Mn  0.99826733  0.57870327  0.45991433     1.49260
C980        C  0.02724465  0.55107104  0.38861045     1.07780
Mn981      Mn  0.47689425  0.93217201  0.05512280     1.49930
C982        C  0.40171033  0.91260087  0.02371896     1.10690
O983        O  0.48778940  0.94977353  0.42522391    -1.02820
O984        O  0.99544063  0.53137526  0.12154326    -0.92480
C985        C  0.01916052  0.93944529  0.42033291     1.21970
O986        O  0.02844445  0.94299640  0.05541581    -1.03210
O987        O  0.97271372  0.56089188  0.07771579    -0.90610
O988        O  0.42086264  0.92011918  0.05002124    -0.90210
O989        O  0.43073631  0.54762342  0.40884150    -0.90240
Mn990      Mn  0.01315377  0.56752840  0.04247933     1.47860
O991        O  0.42358895  0.50026408  0.05350334    -0.78710
C992        C  0.40131086  0.98403896  0.45779968     1.15020
O993        O  0.06874084  0.52464953  0.47479624    -0.77440
O994        O  0.43167132  0.56266226  0.51600911    -0.77060
Mn995      Mn  0.45508821  0.92836932  0.46315448     1.51060
O996        O  0.49092472  0.88328540  0.04168683    -0.89410
O997        O  0.97637799  0.58771757  0.50517311    -0.96940
O998        O  0.41344215  0.91380048  0.49242462    -0.91950
C999        C  0.44964971  0.59089160  0.51473521     1.12810
O1000       O  0.03224100  0.69578670  0.32392167    -0.88590
C1001       C  0.45694520  0.69687157  0.14747914     1.11450
O1002       O  0.48183556  0.74503078  0.28234554    -1.36400
O1003       O  0.03115677  0.68457097  0.16346155    -0.90080
O1004       O  0.01866764  0.74836179  0.35072103    -0.90740
O1005       O  0.04510912  0.80031396  0.29596461    -0.79570
O1006       O  0.02863596  0.68149378  0.24636319    -1.01650
C1007       C  0.05377877  0.80946659  0.19483410     1.21490
O1008       O  0.47802788  0.80479137  0.23501737    -1.36550
Mn1009     Mn  0.44814830  0.75832904  0.24003457     1.82060
O1010       O  0.05932209  0.78528694  0.21780549    -0.78640
O1011       O  0.04789938  0.74146481  0.15727142    -0.88040
C1012       C  0.42515896  0.77859953  0.16737458     1.12580
C1013       C  0.05065103  0.70941986  0.14816919     1.07300
O1014       O  0.40417490  0.77571672  0.27001158    -0.79580
O1015       O  0.99273994  0.74070087  0.21185364    -1.33270
O1016       O  0.43606549  0.80636948  0.30324034    -0.98790
C1017       C  0.98825413  0.88723371  0.21037285     1.06010
Mn1018     Mn  0.99983284  0.76619596  0.15957023     1.48570
O1019       O  0.46295630  0.88885421  0.21883289    -0.87990
Mn1020     Mn  0.47230924  0.77696833  0.32705563     1.49560
O1021       O  0.45517342  0.68380346  0.32725295    -0.91870
C1022       C  0.05918099  0.69397682  0.24569306     1.19210
C1023       C  0.43651238  0.70109037  0.34925522     1.11270
Mn1024     Mn  0.02113545  0.76664899  0.25238105     1.80970
O1025       O  0.45594126  0.78914233  0.15902076    -0.97020
Mn1026     Mn  0.99305301  0.68484852  0.28741472     1.49260
C1027       C  0.03885271  0.72074582  0.34543155     1.07780
Mn1028     Mn  0.47928922  0.82803025  0.18324615     1.49930
C1029       C  0.40258583  0.85536088  0.21513829     1.10690
O1030       O  0.49307831  0.82098802  0.30294872    -1.02820
O1031       O  0.97445482  0.72458582  0.13287278    -0.92480
C1032       C  0.02486570  0.82372376  0.31186527     1.21970
O1033       O  0.02551962  0.80887701  0.17739513    -1.03210
O1034       O  0.94933691  0.69911998  0.17956126    -0.90610
O1035       O  0.42485241  0.84914223  0.18989762    -0.90210
O1036       O  0.43975413  0.73530806  0.35343736    -0.90240
Mn1037     Mn  0.99244408  0.68446349  0.20928092     1.47860
O1038       O  0.41783333  0.76850882  0.19855303    -0.78710
C1039       C  0.40750601  0.79203718  0.29824482     1.15020
O1040       O  0.06295226  0.72630273  0.25584144    -0.77440
O1041       O  0.41713734  0.71404149  0.24508405    -0.77060
Mn1042     Mn  0.45826954  0.84477887  0.26739902     1.51060
O1043       O  0.50930329  0.86769938  0.20218587    -0.89410
O1044       O  0.45789542  0.67429147  0.25214449    -0.96940
O1045       O  0.40918654  0.84786971  0.24701741    -0.91950
C1046       C  0.42528321  0.68203606  0.25176252     1.12810
O1047       O  0.28951337  0.55836351  0.34756796    -0.88590
C1048       C  0.30037960  0.49358596  0.16042617     1.11450
O1049       O  0.24423213  0.51236573  0.30289264    -1.36400
O1050       O  0.30701521  0.56759954  0.18645051    -0.90080
O1051       O  0.23053001  0.55997895  0.36010606    -0.90740
O1052       O  0.18504244  0.57978746  0.30913611    -0.79570
O1053       O  0.30405042  0.55567608  0.26979929    -1.01650
C1054       C  0.17667427  0.58667188  0.21705501     1.21490
O1055       O  0.18520430  0.50786695  0.25988424    -1.36550
Mn1056     Mn  0.23124309  0.47739115  0.26291109     1.82060
O1057       O  0.20054501  0.59360788  0.23800862    -0.78640
O1058       O  0.25063008  0.58376471  0.18004225    -0.88040
C1059       C  0.21325651  0.95845896  0.18743815     1.12580
C1060       C  0.28262257  0.58562485  0.16987667     1.07300
O1061       O  0.21181739  0.93127326  0.29418118    -0.79580
O1062       O  0.25001311  0.52359888  0.23127381    -1.33270
O1063       O  0.18411325  0.96450264  0.32921071    -0.98790
C1064       C  0.09651152  0.51820044  0.24211212     1.06010
Mn1065     Mn  0.22743709  0.53441798  0.18055597     1.48570
O1066       O  0.09988242  0.49927795  0.27095380    -0.87990
Mn1067     Mn  0.21187075  0.50806051  0.34775096     1.49560
O1068       O  0.29819725  0.47597703  0.34574608    -0.91870
C1069       C  0.29725304  0.58767367  0.27133615     1.19210
C1070       C  0.28262696  0.47473255  0.37609346     1.11270
Mn1071     Mn  0.22198001  0.55399984  0.27042733     1.80970
O1072       O  0.20243408  0.48754486  0.18344950    -0.97020
Mn1073     Mn  0.29922500  0.51883903  0.30869835     1.49260
C1074       C  0.26129239  0.57462207  0.35884097     1.07780
Mn1075     Mn  0.16192811  0.50880316  0.20927235     1.49930
C1076       C  0.13302764  0.93571359  0.23383930     1.10690
O1077       O  0.17459388  0.52579826  0.31778692    -1.02820
O1078       O  0.27272309  0.51191274  0.15196623    -0.92480
C1079       C  0.16442215  0.55563003  0.32252704     1.21970
O1080       O  0.18076609  0.55811763  0.19908779    -1.03210
O1081       O  0.30664299  0.48560087  0.19218551    -0.90610
O1082       O  0.13859505  0.96083273  0.21018991    -0.90210
O1083       O  0.24784674  0.98328838  0.38034034    -0.90240
Mn1084     Mn  0.30607584  0.52524781  0.22884134     1.47860
O1085       O  0.22008094  0.94795103  0.21861257    -0.78710
C1086       C  0.19566544  0.93434021  0.32390858     1.15020
O1087       O  0.26406484  0.59581690  0.27589395    -0.77440
O1088       O  0.27196644  0.94522136  0.26479529    -0.77060
Mn1089     Mn  0.14818507  0.98635904  0.29464402     1.51060
O1090       O  0.12257034  0.53487560  0.23081333    -0.89410
O1091       O  0.31172637  0.48787752  0.26769158    -0.96940
O1092       O  0.13878976  0.93940768  0.26700797    -0.91950
C1093       C  0.30517890  0.45566244  0.26423330     1.12810
O1094       O  0.33405534  0.72328909  0.44223338    -0.88590
C1095       C  0.15253645  0.67759087  0.50997409     1.11450
O1096       O  0.28549305  0.75365670  0.50149948    -1.36400
O1097       O  0.18251607  0.68751686  0.44064908    -0.90080
O1098       O  0.34298839  0.78051760  0.45576311    -0.90740
O1099       O  0.28779040  0.82439891  0.44263341    -0.79570
O1100       O  0.26084105  0.70253500  0.45254861    -1.01650
C1101       C  0.18958344  0.82078075  0.43654792     1.21490
O1102       O  0.23383611  0.80286084  0.01260555    -1.36550
Mn1103     Mn  0.24093215  0.75257852  0.03765503     1.82060
O1104       O  0.21938107  0.80682803  0.43130981    -0.78640
O1105       O  0.17676171  0.74594030  0.43184105    -0.88040
C1106       C  0.16315256  0.75682873  0.05691125     1.12580
C1107       C  0.16786580  0.71488177  0.42476315     1.07300
O1108       O  0.27150456  0.76562185  0.08360238    -0.79580
O1109       O  0.21537295  0.74301549  0.49137646    -1.33270
O1110       O  0.30278158  0.80141691  0.05166062    -0.98790
C1111       C  0.20384345  0.89858953  0.51408999     1.06010
Mn1112     Mn  0.16313198  0.76057685  0.48191476     1.48570
O1113       O  0.23295001  0.89323597  0.53100147    -0.87990
Mn1114     Mn  0.32594265  0.78603785  0.00809613     1.49560
O1115       O  0.34004211  0.69444099  0.51811018    -0.91870
C1116       C  0.26246721  0.71336228  0.42213824     1.19210
C1117       C  0.36552041  0.71163239  0.02903829     1.11270
Mn1118     Mn  0.25180851  0.78066414  0.46473943     1.80970
O1119       O  0.15824680  0.77458775  0.02861117    -0.97020
Mn1120     Mn  0.29986710  0.70174877  0.48356979     1.49260
C1121       C  0.34315064  0.75563215  0.43346712     1.07780
Mn1122     Mn  0.18089815  0.82170049  0.01184720     1.49930
C1123       C  0.20768095  0.84438476  0.09013453     1.10690
O1124       O  0.29356501  0.82921059  0.49578723    -1.02820
O1125       O  0.14244265  0.70834878  0.49690888    -0.92480
C1126       C  0.29901753  0.84319519  0.46746981     1.21970
O1127       O  0.17261574  0.81209985  0.46500365    -1.03210
O1128       O  0.18411184  0.67238073  0.51967382    -0.90610
O1129       O  0.18383539  0.84101578  0.06628640    -0.90210
O1130       O  0.36433725  0.74627366  0.02691906    -0.90240
Mn1131     Mn  0.22247184  0.68685865  0.48229546     1.47860
O1132       O  0.19430139  0.75361428  0.06886107    -0.78710
C1133       C  0.30006288  0.78334207  0.07888542     1.15020
O1134       O  0.26326221  0.74770131  0.41744236    -0.77440
O1135       O  0.24793194  0.70334607  0.06198800    -0.77060
Mn1136     Mn  0.26659690  0.83960563  0.03785574     1.51060
O1137       O  0.20331604  0.86617837  0.98810741    -0.89410
O1138       O  0.26370297  0.67900221  0.51650539    -0.96940
O1139       O  0.23983509  0.83512990  0.08516913    -0.91950
C1140       C  0.26317497  0.67703059  0.04839766     1.12810
C1141       C  0.28864509  0.60397013  0.13447808    -0.05880
C1142       C  0.30491838  0.63778163  0.13175494    -0.33310
C1143       C  0.29912097  0.66088529  0.10187693     0.35940
C1144       C  0.27854169  0.64959080  0.07328605    -0.06240
C1145       C  0.26537829  0.61453222  0.07440928    -0.33210
C1146       C  0.26945894  0.59211002  0.10490848     0.35850
H1147       H  0.31890809  0.64782728  0.15420992     0.16220
O1148       O  0.31199641  0.69544847  0.10169648    -0.60710
H1149       H  0.24841353  0.60591324  0.05343930     0.16230
O1150       O  0.25063400  0.56050936  0.10716169    -0.60800
H1151       H  0.26244421  0.54447059  0.08969400     0.43230
H1152       H  0.29554678  0.70842081  0.11796547     0.43180
C1153       C  0.21154896  0.92930071  0.16175937    -0.05880
C1154       C  0.23172928  0.89755033  0.16832176    -0.33310
C1155       C  0.22722162  0.86687790  0.14833327     0.35940
C1156       C  0.20156601  0.86708063  0.12145233    -0.06240
C1157       C  0.17913343  0.89737337  0.11775142    -0.33210
C1158       C  0.18568479  0.92930142  0.13568994     0.35850
H1159       H  0.25141148  0.89651028  0.18897723     0.16220
O1160       O  0.24849354  0.83695946  0.15474574    -0.60710
H1161       H  0.15691382  0.89614923  0.10041277     0.16230
O1162       O  0.16434972  0.95913620  0.13024875    -0.60800
H1163       H  0.17875084  0.97597161  0.11469145     0.43230
H1164       H  0.27292438  0.84421072  0.14681151     0.43180
C1165       C  0.17862642  0.84587160  0.40534150    -0.05880
C1166       C  0.19547489  0.83980200  0.37170189    -0.33310
C1167       C  0.20008867  0.86742555  0.34500137     0.35940
C1168       C  0.18724073  0.90281694  0.35035838    -0.06240
C1169       C  0.16651582  0.90794406  0.38216505    -0.33210
C1170       C  0.16151941  0.87961931  0.40894989     0.35850
H1171       H  0.20789496  0.81372430  0.36691395     0.16220
O1172       O  0.21861052  0.85959884  0.31425526    -0.60710
H1173       H  0.15471011  0.93431652  0.38676080     0.16230
O1174       O  0.14134322  0.88540535  0.43917642    -0.60800
H1175       H  0.11939542  0.89819185  0.43133490     0.43230
H1176       H  0.24400974  0.85886865  0.32091055     0.43180
C1177       C  0.26456591  0.61251208  0.37072134    -0.05880
C1178       C  0.24130374  0.64037989  0.35838804    -0.33310
C1179       C  0.24379739  0.67615557  0.37042994     0.35940
C1180       C  0.26878457  0.68421057  0.39614709    -0.06240
C1181       C  0.29303824  0.65641881  0.40672447    -0.33210
C1182       C  0.29148881  0.62142145  0.39392293     0.35850
H1183       H  0.22092867  0.63433524  0.33966113     0.16220
O1184       O  0.22010009  0.70220783  0.35892902    -0.60710
H1185       H  0.31203356  0.66114444  0.42721742     0.16230
O1186       O  0.31500069  0.59545404  0.40626546    -0.60800
H1187       H  0.30348171  0.58474535  0.42820573     0.43230
H1188       H  0.23221007  0.71464568  0.33820916     0.43180
C1189       C  0.39342605  0.65660217  0.25750809    -0.05880
C1190       C  0.35842900  0.67203061  0.26111265    -0.33310
C1191       C  0.32721828  0.65091973  0.26669485     0.35940
C1192       C  0.32945129  0.61291842  0.26816778    -0.06240
C1193       C  0.36443124  0.59744158  0.26466520    -0.33210
C1194       C  0.39573216  0.61856728  0.25965230     0.35850
H1195       H  0.35489356  0.70117362  0.25966078     0.16220
O1196       O  0.29470207  0.66794873  0.26982144    -0.60710
H1197       H  0.36783166  0.56826355  0.26560185     0.16230
O1198       O  0.42821914  0.60153325  0.25628937    -0.60800
H1199       H  0.43704250  0.59880004  0.28090678     0.43230
H1200       H  0.29138301  0.67226170  0.29560850     0.43180
C1201       C  0.32872080  0.92880368  0.24807711    -0.05880
C1202       C  0.35897979  0.94149967  0.22960128    -0.33310
C1203       C  0.38084095  0.91781663  0.21070899     0.35940
C1204       C  0.37275088  0.88035642  0.21071672    -0.06240
C1205       C  0.34066542  0.86839165  0.22636800    -0.33210
C1206       C  0.31928910  0.89188309  0.24585666     0.35850
H1207       H  0.36573702  0.96998425  0.22953991     0.16220
O1208       O  0.41129674  0.93123670  0.19426311    -0.60710
H1209       H  0.33466008  0.83968535  0.22767441     0.16230
O1210       O  0.28988093  0.87801508  0.26378340    -0.60800
H1211       H  0.29862447  0.86988975  0.28747444     0.43230
H1212       H  0.42389961  0.94499847  0.21226513     0.43180
C1213       C  0.09043992  0.66879475  0.23703335    -0.05880
C1214       C  0.09017352  0.63447410  0.25307859    -0.33310
C1215       C  0.11758896  0.60885701  0.24698592     0.35940
C1216       C  0.14392265  0.61304908  0.21901447    -0.06240
C1217       C  0.14526603  0.64896279  0.20386280    -0.33170
C1218       C  0.11978220  0.67674799  0.21351214     0.35850
H1219       H  0.06992422  0.62845598  0.27353189     0.16220
O1220       O  0.12141966  0.58243632  0.27263126    -0.60710
H1221       H  0.16725767  0.65617998  0.18582978     0.16230
O1222       O  0.12389722  0.71134375  0.19966056    -0.60800
H1223       H  0.13886803  0.72362555  0.21683856     0.43230
H1224       H  0.09716836  0.57434358  0.28039606     0.43180
C1225       C  0.07644461  0.84187418  0.20051570    -0.05880
C1226       C  0.07687978  0.85273243  0.23586427    -0.33310
C1227       C  0.09706935  0.88070341  0.24735869     0.35940
C1228       C  0.11672913  0.90163400  0.22246706    -0.06240
C1229       C  0.11688532  0.89146351  0.18640320    -0.33210
C1230       C  0.09921870  0.85998988  0.17587098     0.35850
H1231       H  0.05848248  0.84129895  0.25444435     0.16220
O1232       O  0.09387371  0.88963153  0.28246517    -0.60710
H1233       H  0.12958376  0.90839894  0.16640763     0.16230
O1234       O  0.10335437  0.84834950  0.14183304    -0.60800
H1235       H  0.12451948  0.83204118  0.14232531     0.43230
H1236       H  0.11072454  0.87322921  0.29526072     0.43180
C1237       C  0.39358019  0.78108925  0.14409930    -0.05880
C1238       C  0.35916516  0.77433214  0.15974618    -0.33310
C1239       C  0.32826821  0.77456068  0.13945022     0.35940
C1240       C  0.33097394  0.78309265  0.10296967    -0.06240
C1241       C  0.36494777  0.79198442  0.08795447    -0.33210
C1242       C  0.39606495  0.78938363  0.10763310     0.35850
H1243       H  0.35585293  0.76846657  0.18809246     0.16220
O1244       O  0.29553245  0.76861283  0.15575274    -0.60710
H1245       H  0.36772058  0.79999615  0.06021055     0.16230
O1246       O  0.42857960  0.79421807  0.09075219    -0.60800
H1247       H  0.43549494  0.77002446  0.08204912     0.43230
H1248       H  0.29728599  0.74469597  0.16852710     0.43180
C1249       C  0.13297175  0.73738443  0.07636966    -0.05880
C1250       C  0.09750049  0.74404039  0.06680286    -0.33310
C1251       C  0.06895921  0.72830095  0.08670534     0.35940
C1252       C  0.07523583  0.70508273  0.11680724    -0.06240
C1253       C  0.11037965  0.69384529  0.12247596    -0.33210
C1254       C  0.13915220  0.71039382  0.10350205     0.35850
H1255       H  0.09165668  0.76305736  0.04504870     0.16220
O1256       O  0.03472385  0.73845103  0.07861287    -0.60710
H1257       H  0.11573758  0.67433127  0.14363734     0.16230
O1258       O  0.17319253  0.70025251  0.11225633    -0.60800
H1259       H  0.17866404  0.71434784  0.13339021     0.43230
H1260       H  0.03147131  0.76320732  0.08768353     0.43180
C1261       C  0.13462172  0.71334603  0.40522575    -0.05880
C1262       C  0.13282956  0.69529560  0.37345521    -0.33310
C1263       C  0.10191168  0.69773426  0.35322451     0.35940
C1264       C  0.07210749  0.71791601  0.36539199    -0.06240
C1265       C  0.07485549  0.73763469  0.39620280    -0.33210
C1266       C  0.10586395  0.73614954  0.41563615     0.35850
H1267       H  0.15608188  0.68115015  0.36335837     0.16220
O1268       O  0.10173525  0.68189256  0.32081078    -0.60710
H1269       H  0.05297218  0.75459981  0.40536309     0.16230
O1270       O  0.10826560  0.75792024  0.44440492    -0.60800
H1271       H  0.08901483  0.75026423  0.46156007     0.43230
H1272       H  0.11597378  0.69815455  0.30450734     0.43180
C1273       C  0.38125788  0.78703078  0.32764758    -0.05880
C1274       C  0.36643679  0.75259170  0.33377361    -0.33310
C1275       C  0.35283993  0.74186351  0.36765711     0.35940
C1276       C  0.35324705  0.76619417  0.39570088    -0.06240
C1277       C  0.36139386  0.80268621  0.38675437    -0.33210
C1278       C  0.37701172  0.81279016  0.35382087     0.35850
H1279       H  0.36897762  0.73248704  0.31356078     0.16220
O1280       O  0.34125359  0.70708254  0.37348043    -0.60710
H1281       H  0.35609626  0.82371920  0.40515750     0.16230
O1282       O  0.38843527  0.84769812  0.34760282    -0.60800
H1283       H  0.41123777  0.84922066  0.36023701     0.43230
H1284       H  0.32609012  0.70165460  0.35311362     0.43180
C1285       C  0.32803911  0.86984617  0.46797323    -0.05880
C1286       C  0.31792406  0.90217987  0.48492479    -0.33310
C1287       C  0.33810413  0.91556056  0.51296214     0.35940
C1288       C  0.36687053  0.89503841  0.02641042    -0.06240
C1289       C  0.37183668  0.85951517  0.01576759    -0.33210
C1290       C  0.36026578  0.85389339  0.48006648     0.35850
H1291       H  0.29342987  0.91602939  0.47762689     0.16220
O1292       O  0.33094289  0.94944712  0.52517979    -0.60710
H1293       H  0.39533232  0.84479536  0.02485684     0.16230
O1294       O  0.38229685  0.83443671  0.45828828    -0.60800
H1295       H  0.39903316  0.84718275  0.95000435     0.43230
H1296       H  0.31203621  0.94585846  0.54387149     0.43180
C1297       C  0.43310218  0.62501489  0.02586510    -0.05880
C1298       C  0.44730187  0.65982602  0.51342618    -0.33310
C1299       C  0.42840117  0.69241851  0.51986397     0.35940
C1300       C  0.39684295  0.69045238  0.04165013    -0.06240
C1301       C  0.38814439  0.65789232  0.05996603    -0.33210
C1302       C  0.40375321  0.62495048  0.05010066     0.35850
H1303       H  0.47065742  0.66059804  0.49584671     0.16220
O1304       O  0.44046254  0.72434992  0.50426783    -0.60710
H1305       H  0.36441182  0.65704818  0.07668921     0.16230
O1306       O  0.38833161  0.59260661  0.06122624    -0.60800
H1307       H  0.37101565  0.59712458  0.08102702     0.43230
H1308       H  0.42277956  0.73177604  0.48623400     0.43180
C1309       C  0.16511333  0.90335744  0.02191516    -0.05880
C1310       C  0.15842190  0.93258360  0.04410134    -0.33310
C1311       C  0.12288735  0.94230914  0.05514774     0.35940
C1312       C  0.09224599  0.92310048  0.04442016    -0.06240
C1313       C  0.09937029  0.89402225  0.02251317    -0.33210
C1314       C  0.15228724  0.93948486  0.49545050     0.35850
H1315       H  0.18069139  0.94783919  0.05324613     0.16220
O1316       O  0.11868053  0.97149225  0.07605869    -0.60710
H1317       H  0.10075608  0.95419592  0.47832807     0.16230
O1318       O  0.16696969  0.94594471  0.46204869    -0.60800
H1319       H  0.17435648  0.97167379  0.46153196     0.43230
H1320       H  0.10827676  0.96145206  0.09881664     0.43180
C1321       C  0.09758191  0.58229784  0.48145639    -0.05880
C1322       C  0.08904506  0.61636845  0.46638413    -0.33310
C1323       C  0.10276312  0.64783069  0.47979711     0.35940
C1324       C  0.13054095  0.64535968  0.50431739    -0.06240
C1325       C  0.14398653  0.60581144  0.01987195    -0.33210
C1326       C  0.12644793  0.57410847  0.01053728     0.35850
H1327       H  0.06713093  0.61886505  0.44814371     0.16220
O1328       O  0.08705721  0.68077127  0.47131613    -0.60710
H1329       H  0.16753863  0.60325806  0.03589290     0.16230
O1330       O  0.13638228  0.54124308  0.02551661    -0.60800
H1331       H  0.15194017  0.52985428  0.00724779     0.43230
H1332       H  0.07492440  0.67885008  0.44833378     0.43180
C1333       C  0.36623989  0.97603683  0.44296829    -0.05880
C1334       C  0.36366367  0.94701432  0.41996677    -0.33310
C1335       C  0.33268369  0.94181308  0.40112297     0.35940
C1336       C  0.30374759  0.96602447  0.40478568    -0.06240
C1337       C  0.30468412  0.99235645  0.43081565    -0.33210
C1338       C  0.33576450  0.99760985  0.44980185     0.35850
H1339       H  0.38631633  0.92919252  0.41529985     0.16220
O1340       O  0.33219760  0.91517862  0.37661040    -0.60710
H1341       H  0.28284257  0.01158743  0.43359394     0.16230
O1342       O  0.33720563  0.02623759  0.47198441    -0.60800
H1343       H  0.32515831  0.01775397  0.49452084     0.43230
H1344       H  0.32095672  0.89408317  0.38937200     0.43180
C1345       C  0.12994024  0.55787296  0.34193955    -0.05880
C1346       C  0.11154660  0.52491069  0.34691791    -0.33310
C1347       C  0.07584999  0.52371760  0.35517503     0.35940
C1348       C  0.05834674  0.55534952  0.36495094    -0.06240
C1349       C  0.07690851  0.58873957  0.36268901    -0.33210
C1350       C  0.11272111  0.58984275  0.35088978     0.35850
H1351       H  0.12443580  0.49897027  0.34419916     0.16220
O1352       O  0.05969448  0.98955660  0.35651575    -0.60710
H1353       H  0.06424128  0.61339380  0.37173197     0.16230
O1354       O  0.13123792  0.62137027  0.35000466    -0.60800
H1355       H  0.14702664  0.61916563  0.37078222     0.43230
H1356       H  0.07097488  0.97640239  0.37684052     0.43180
C1357       C  0.06667246  0.52952019  0.14045387    -0.05880
C1358       C  0.06420933  0.49477563  0.15762944    -0.33310
C1359       C  0.06346816  0.48992447  0.19517264     0.35940
C1360       C  0.06664805  0.51992491  0.21671532    -0.06240
C1361       C  0.06145561  0.55450716  0.19981474    -0.33210
C1362       C  0.06351030  0.55963460  0.16235012     0.35850
H1363       H  0.05891232  0.97261669  0.14028547     0.16220
O1364       O  0.05928925  0.95989254  0.20862436    -0.60710
H1365       H  0.06159441  0.57827985  0.21571986     0.16230
O1366       O  0.06302721  0.59418963  0.14770441    -0.60800
H1367       H  0.08809201  0.60243744  0.14804133     0.43230
H1368       H  0.03366839  0.95463403  0.21310180     0.43180
C1369       C  0.40256602  0.48470289  0.10943409    -0.05880
C1370       C  0.38069062  0.95434570  0.11200833    -0.33310
C1371       C  0.34595583  0.95703753  0.12660198     0.35940
C1372       C  0.33096357  0.49001439  0.13572914    -0.06240
C1373       C  0.35194654  0.52075940  0.13016470    -0.33210
C1374       C  0.38780789  0.51810896  0.11924819     0.35850
H1375       H  0.38811959  0.92912533  0.10089041     0.16220
O1376       O  0.32558028  0.92653064  0.13147455    -0.60710
H1377       H  0.34120291  0.54710753  0.13604067     0.16230
O1378       O  0.40788978  0.54881308  0.11527646    -0.60800
H1379       H  0.39858583  0.56608997  0.13293417     0.43230
H1380       H  0.31180114  0.92506133  0.10941451     0.43180
C1381       C  0.41171027  0.67718531  0.37046827    -0.05880
C1382       C  0.39855306  0.64675712  0.35332959    -0.33310
C1383       C  0.39726742  0.61262854  0.37082054     0.35940
C1384       C  0.40710855  0.60972414  0.40643667    -0.06240
C1385       C  0.40726006  0.64201657  0.42577329    -0.33210
C1386       C  0.41214907  0.67562668  0.40766334     0.35850
H1387       H  0.39581970  0.64800573  0.32499857     0.16220
O1388       O  0.39362166  0.58225362  0.35134124    -0.60710
H1389       H  0.41181167  0.64043697  0.45406924     0.16230
O1390       O  0.42263647  0.70500461  0.42584123    -0.60800
H1391       H  0.44874506  0.70189280  0.42852039     0.43230
H1392       H  0.36753597  0.57925907  0.34919581     0.43180
C1393       C  0.02861993  0.91155843  0.39116307    -0.05880
C1394       C  0.01474038  0.91659073  0.35681454    -0.33310
C1395       C  0.51204156  0.89093755  0.32987075     0.35940
C1396       C  0.03398192  0.85525388  0.33664526    -0.06240
C1397       C  0.04885579  0.85022514  0.37093784    -0.33210
C1398       C  0.04623321  0.87752717  0.39763018     0.35850
H1399       H  0.49456335  0.94173784  0.35156925     0.16220
O1400       O  0.49384521  0.89788615  0.29911305    -0.60710
H1401       H  0.06040976  0.82407162  0.37816340     0.16230
O1402       O  0.05864732  0.86929538  0.43094435    -0.60800
H1403       H  0.03890588  0.85624135  0.44372135     0.43230
H1404       H  0.46827569  0.89491080  0.30589037     0.43180
C1405       C  0.98540980  0.87974766  0.08652979    -0.05880
C1406       C  0.45537639  0.87005627  0.09023052    -0.33310
C1407       C  0.45267186  0.88186793  0.12665390     0.35940
C1408       C  0.98447304  0.89546350  0.16857795    -0.06240
C1409       C  0.01587812  0.88892960  0.14798293    -0.33210
C1410       C  0.01768852  0.87869789  0.11169021     0.35850
H1411       H  0.43082655  0.86355375  0.07760937     0.16220
O1412       O  0.41950427  0.89093700  0.13947897    -0.60710
H1413       H  0.04064158  0.89028124  0.16142026     0.16230
O1414       O  0.05021579  0.86943923  0.09710721    -0.60800
H1415       H  0.06601356  0.89013843  0.10117663     0.43230
H1416       H  0.40278781  0.87199748  0.13225544     0.43180
C1417       C  0.45326103  0.66287364  0.13032299    -0.05880
C1418       C  0.97910491  0.65839771  0.10488755    -0.33310
C1419       C  0.99407510  0.62440863  0.10236506     0.35940
C1420       C  0.48291391  0.59449404  0.12236188    -0.06240
C1421       C  0.45700701  0.59943882  0.14882260    -0.33210
C1422       C  0.44020933  0.63294266  0.15121156     0.35850
H1423       H  0.99047300  0.68043092  0.08861370     0.16220
O1424       O  0.02106606  0.61994568  0.07754617    -0.60710
H1425       H  0.44769805  0.57667865  0.16544033     0.16230
O1426       O  0.41332151  0.63708851  0.17621987    -0.60800
H1427       H  0.39094445  0.63538169  0.16292565     0.43230
H1428       H  0.01157145  0.62825863  0.05419954     0.43180
O1429       O  0.02984131  0.56947508  0.92076925    -0.88590
C1430       C  0.48777525  0.56008773  0.60594678     1.11450
O1431       O  0.98476413  0.52103371  0.96556701    -1.36400
O1432       O  0.05486743  0.56422213  0.57738763    -0.90080
O1433       O  0.00625655  0.02553745  0.88705672    -0.90740
O1434       O  0.04251514  0.95871054  0.93923785    -0.79570
O1435       O  0.03959167  0.56388781  0.99783573    -1.01650
C1436       C  0.05599063  0.94275672  0.53676100     1.21490
O1437       O  0.47476084  0.95856554  0.50316353    -1.36550
Mn1438     Mn  0.45412520  0.51103625  0.50927756     1.82060
O1439       O  0.04584398  0.94244648  0.50628950    -0.78640
O1440       O  0.05911018  0.50648389  0.57934287    -0.88040
C1441       C  0.43489675  0.48643784  0.58334960     1.12580
C1442       C  0.06218706  0.53518998  0.59503555     1.07300
O1443       O  0.40389808  0.50277807  0.98390381    -0.79580
O1444       O  0.00252028  0.51702243  0.53241089    -1.33270
O1445       O  0.42847818  0.97167082  0.94476362    -0.98790
C1446       C  0.49390290  0.86506194  0.51739601     1.06010
Mn1447     Mn  0.00970180  0.48618573  0.58279951     1.48570
O1448       O  0.48361815  0.88023074  0.98732029    -0.87990
Mn1449     Mn  0.46384508  0.99994185  0.91677427     1.49560
O1450       O  0.45889564  0.59195499  0.93439785    -0.91870
C1451       C  0.06824067  0.55044117  0.99026026     1.19210
C1452       C  0.43323260  0.58032323  0.91714831     1.11270
Mn1453     Mn  0.02341025  0.99113806  0.98543755     1.80970
O1454       O  0.46279808  0.97074849  0.58575413    -0.97020
Mn1455     Mn  0.00086988  0.57554465  0.96526187     1.49260
C1456       C  0.02941673  0.55055483  0.89377477     1.07780
Mn1457     Mn  0.47688311  0.93194904  0.55538523     1.49930
C1458       C  0.40209387  0.91248280  0.52392675     1.10690
O1459       O  0.48757245  0.94987417  0.92528729    -1.02820
O1460       O  0.99206337  0.52853847  0.61776812    -0.92480
C1461       C  0.02038772  0.94169983  0.92113865     1.21970
O1462       O  0.03140635  0.94399381  0.56120575    -1.03210
O1463       O  0.97381470  0.55948346  0.57272474    -0.90610
O1464       O  0.42115204  0.91970916  0.55030625    -0.90210
O1465       O  0.43080258  0.54713621  0.90819518    -0.90240
Mn1466     Mn  0.01311584  0.57117758  0.53745321     1.47860
O1467       O  0.42575905  0.50082001  0.55448551    -0.78710
C1468       C  0.40150066  0.98422960  0.95865977     1.15020
O1469       O  0.06956157  0.51707398  0.98268917    -0.77440
O1470       O  0.43033425  0.56189557  0.01442521    -0.77060
Mn1471     Mn  0.45501910  0.92840735  0.96335098     1.51060
O1472       O  0.49128166  0.88338309  0.54120174    -0.89410
O1473       O  0.97767536  0.58548763  0.00945864    -0.96940
O1474       O  0.41312539  0.91354227  0.99225973    -0.91950
C1475       C  0.44851112  0.58997350  0.01360081     1.12810
O1476       O  0.03289936  0.69765496  0.82494276    -0.88590
C1477       C  0.45768815  0.69632517  0.64755456     1.11450
O1478       O  0.48176049  0.74484356  0.78219341    -1.36400
O1479       O  0.03351278  0.68340841  0.66507273    -0.90080
O1480       O  0.02235140  0.75184611  0.85022289    -0.90740
O1481       O  0.04667889  0.80379390  0.79419077    -0.79570
O1482       O  0.03063786  0.68224377  0.74807222    -1.01650
C1483       C  0.05488981  0.80939477  0.69536998     1.21490
O1484       O  0.47785036  0.80447717  0.73473627    -1.36550
Mn1485     Mn  0.44807757  0.75786857  0.73984206     1.82060
O1486       O  0.06120331  0.78465454  0.71723346    -0.78640
O1487       O  0.05055936  0.74012799  0.65931114    -0.88040
C1488       C  0.42531968  0.77828258  0.66716443     1.12580
C1489       C  0.05333295  0.70820273  0.65003729     1.07300
O1490       O  0.40402680  0.77518574  0.76982287    -0.79580
O1491       O  0.99456224  0.74012184  0.71249138    -1.33270
O1492       O  0.43589638  0.80604806  0.80288909    -0.98790
C1493       C  0.98717359  0.88630425  0.69757733     1.06010
Mn1494     Mn  0.00217543  0.76400388  0.65994918     1.48570
O1495       O  0.46251527  0.88828665  0.71812518    -0.87990
Mn1496     Mn  0.47225864  0.77698827  0.82677982     1.49560
O1497       O  0.45524307  0.68379135  0.82727145    -0.91870
C1498       C  0.06116748  0.69500676  0.74722670     1.19210
C1499       C  0.43663543  0.70114519  0.84927558     1.11270
Mn1500     Mn  0.02296458  0.76777551  0.75194185     1.80970
O1501       O  0.45607924  0.78884838  0.65892923    -0.97020
Mn1502     Mn  0.99440872  0.68655633  0.78856474     1.49260
C1503       C  0.04086023  0.72275005  0.84561555     1.07780
Mn1504     Mn  0.47915591  0.82786040  0.68302157     1.49930
C1505       C  0.40213662  0.85484705  0.71476718     1.10690
O1506       O  0.49282471  0.82102910  0.80251346    -1.02820
O1507       O  0.97769143  0.72135310  0.63437295    -0.92480
C1508       C  0.02566229  0.82651979  0.81022054     1.21970
O1509       O  0.02728024  0.80785555  0.67666038    -1.03210
O1510       O  0.95130984  0.69688959  0.68087770    -0.90610
O1511       O  0.42445228  0.84883189  0.68950067    -0.90210
O1512       O  0.43988690  0.73536367  0.85338263    -0.90240
Mn1513     Mn  0.99446852  0.68392819  0.71092854     1.47860
O1514       O  0.41791800  0.76779972  0.69822187    -0.78710
C1515       C  0.40740973  0.79149244  0.79807364     1.15020
O1516       O  0.06471928  0.72748515  0.75713754    -0.77440
O1517       O  0.41710090  0.71342447  0.74502000    -0.77060
Mn1518     Mn  0.45785500  0.84443841  0.76688856     1.51060
O1519       O  0.50929089  0.86779860  0.70173453    -0.89410
O1520       O  0.45796083  0.67383295  0.75217114    -0.96940
O1521       O  0.40871260  0.84687795  0.74654792    -0.91950
C1522       C  0.42531226  0.68143420  0.75178446     1.12810
O1523       O  0.28707101  0.55454336  0.84813760    -0.88590
C1524       C  0.30256204  0.49434727  0.65964211     1.11450
O1525       O  0.24190228  0.51166327  0.80091290    -1.36400
O1526       O  0.30928891  0.56816050  0.68630917    -0.90080
O1527       O  0.22777474  0.55823169  0.85871142    -0.90740
O1528       O  0.18393515  0.57956748  0.80569930    -0.79570
O1529       O  0.30404393  0.55461776  0.77028115    -1.01650
C1530       C  0.17880403  0.58843287  0.71438684     1.21490
O1531       O  0.18454044  0.50921479  0.75492731    -1.36550
Mn1532     Mn  0.22972679  0.47715983  0.76016254     1.82060
O1533       O  0.20275372  0.59466821  0.73542041    -0.78640
O1534       O  0.25340916  0.58514941  0.67855087    -0.88040
C1535       C  0.21413896  0.95686773  0.68953260     1.12580
C1536       C  0.28558727  0.58676612  0.66912465     1.07300
O1537       O  0.21538051  0.93174066  0.79582041    -0.79580
O1538       O  0.25052605  0.52374424  0.72951037    -1.33270
O1539       O  0.18644187  0.96380348  0.83158304    -0.98790
C1540       C  0.09551794  0.52104886  0.73317230     1.06010
Mn1541     Mn  0.22991621  0.53604566  0.67819391     1.48570
O1542       O  0.10017743  0.50200606  0.76186454    -0.87990
Mn1543     Mn  0.20860995  0.50706905  0.84541278     1.49560
O1544       O  0.29321502  0.47230110  0.84351539    -0.91870
C1545       C  0.29733775  0.58665739  0.77193797     1.19210
C1546       C  0.27897934  0.47269923  0.87438313     1.11270
Mn1547     Mn  0.22175377  0.55404021  0.76805438     1.80970
O1548       O  0.20474791  0.48945385  0.67964226    -0.97020
Mn1549     Mn  0.29692414  0.51659440  0.80821676     1.49260
C1550       C  0.25906225  0.57163909  0.85853293     1.07780
Mn1551     Mn  0.16308120  0.51148693  0.70268769     1.49930
C1552       C  0.13743704  0.93050157  0.73949278     1.10690
O1553       O  0.17123288  0.52567632  0.81562337    -1.02820
O1554       O  0.27547589  0.51321847  0.65071725    -0.92480
C1555       C  0.16204077  0.55626426  0.81860796     1.21970
O1556       O  0.18306350  0.56051869  0.69546521    -1.03210
O1557       O  0.30787872  0.48584790  0.69145019    -0.90610
O1558       O  0.14126196  0.95578440  0.71544494    -0.90210
O1559       O  0.24939153  0.98531087  0.88133015    -0.90240
Mn1560     Mn  0.30650737  0.52497710  0.72854703     1.47860
O1561       O  0.22236818  0.94708819  0.72052056    -0.78710
C1562       C  0.19955499  0.93436998  0.82562540     1.15020
O1563       O  0.26411962  0.59497274  0.77576533    -0.77440
O1564       O  0.27397564  0.94603176  0.76671661    -0.77060
Mn1565     Mn  0.14990099  0.98362409  0.79712098     1.51060
O1566       O  0.12098128  0.53723538  0.71914724    -0.89410
O1567       O  0.30972331  0.48689463  0.76687161    -0.96940
O1568       O  0.14293719  0.93506165  0.77231918    -0.91950
C1569       C  0.30318998  0.45479220  0.76297146     1.12810
O1570       O  0.33513644  0.72018158  0.94178655    -0.88590
C1571       C  0.15360145  0.67289345  0.01081600     1.11450
O1572       O  0.28608897  0.74977700  0.00130917    -1.36400
O1573       O  0.18392774  0.68192487  0.93929558    -0.90080
O1574       O  0.34301681  0.77737679  0.95590724    -0.90740
O1575       O  0.28840050  0.82015410  0.94245735    -0.79570
O1576       O  0.26209370  0.69778055  0.95168975    -1.01650
C1577       C  0.19299384  0.81470095  0.93479330     1.21490
O1578       O  0.23351301  0.80810856  0.51363017    -1.36550
Mn1579     Mn  0.24077400  0.75717936  0.53850557     1.82060
O1580       O  0.21916377  0.79541291  0.92810300    -0.78640
O1581       O  0.17132510  0.73990063  0.92989378    -0.88040
C1582       C  0.16334296  0.76069518  0.55851553     1.12580
C1583       C  0.16859971  0.70773116  0.92138193     1.07300
O1584       O  0.27155435  0.76962248  0.58415538    -0.79580
O1585       O  0.21598307  0.73780728  0.99000504    -1.33270
O1586       O  0.30327239  0.80443015  0.55170617    -0.98790
C1587       C  0.20258224  0.88915848  0.01082962     1.06010
Mn1588     Mn  0.16317428  0.75524608  0.98049093     1.48570
O1589       O  0.23045202  0.88866906  0.02975829    -0.87990
Mn1590     Mn  0.32627575  0.78898412  0.50806560     1.49560
O1591       O  0.34116615  0.69204859  0.01785482    -0.91870
C1592       C  0.26381784  0.70894454  0.92137829     1.19210
C1593       C  0.36504364  0.71352341  0.52862453     1.11270
Mn1594     Mn  0.25262701  0.77521893  0.96383001     1.80970
O1595       O  0.15770420  0.77875379  0.53050579    -0.97020
Mn1596     Mn  0.30102998  0.69818483  0.98306493     1.49260
C1597       C  0.34385823  0.75273139  0.93338273     1.07780
Mn1598     Mn  0.17946188  0.82694514  0.51477955     1.49930
C1599       C  0.20874436  0.84621268  0.59234797     1.10690
O1600       O  0.29258460  0.82545735  0.99556113    -1.02820
O1601       O  0.14290282  0.70320621  0.99696514    -0.92480
C1602       C  0.29871120  0.83945359  0.96746823     1.21970
O1603       O  0.17451637  0.80644943  0.96245026    -1.03210
O1604       O  0.18558267  0.66781544  0.01909182    -0.90610
O1605       O  0.18395038  0.84417345  0.56926009    -0.90210
O1606       O  0.36436031  0.74822510  0.52639294    -0.90240
Mn1607     Mn  0.22352972  0.68212613  0.98140060     1.47860
O1608       O  0.19462973  0.75855668  0.57022907    -0.78710
C1609       C  0.30044828  0.78653572  0.57904535     1.15020
O1610       O  0.26544887  0.74310194  0.91698323    -0.77440
O1611       O  0.24779970  0.70756273  0.56282984    -0.77060
Mn1612     Mn  0.26760987  0.84335830  0.53816876     1.51060
O1613       O  0.19616953  0.87530912  0.49259197    -0.89410
O1614       O  0.26468823  0.67523267  0.01565206    -0.96940
O1615       O  0.24112987  0.83923315  0.58538965    -0.91950
C1616       C  0.26271913  0.68095829  0.54931077     1.12810
C1617       C  0.29240653  0.60609492  0.63402381    -0.05880
C1618       C  0.30554604  0.64137409  0.63285312    -0.33310
C1619       C  0.29848199  0.66511547  0.60363270     0.35940
C1620       C  0.27895836  0.65363501  0.57431751    -0.06240
C1621       C  0.26917384  0.61745349  0.57374618    -0.33210
C1622       C  0.27510473  0.59400270  0.60329859     0.35850
H1623       H  0.31814781  0.65172438  0.65599296     0.16220
O1624       O  0.30930192  0.70028795  0.60476219    -0.60710
H1625       H  0.25360462  0.60817799  0.55200398     0.16230
O1626       O  0.25980579  0.56056596  0.60332668    -0.60800
H1627       H  0.27506662  0.54625293  0.58693719     0.43230
H1628       H  0.29113960  0.71194228  0.62025579     0.43180
C1629       C  0.21148691  0.92735325  0.66490001    -0.05880
C1630       C  0.23605039  0.89860802  0.66817660    -0.33310
C1631       C  0.23187218  0.86714899  0.64944555     0.35940
C1632       C  0.20283154  0.86418505  0.62652564    -0.06240
C1633       C  0.17533091  0.88965235  0.62885133    -0.33210
C1634       C  0.18068190  0.92271325  0.64541198     0.35850
H1635       H  0.25881724  0.90064106  0.68518825     0.16220
O1636       O  0.25700695  0.83996917  0.65248658    -0.60710
H1637       H  0.15116083  0.88525827  0.61480388     0.16230
O1638       O  0.15454833  0.94890824  0.64481708    -0.60800
H1639       H  0.16348179  0.96816765  0.62787843     0.43230
H1640       H  0.27954138  0.85027425  0.64226976     0.43180
C1641       C  0.19030390  0.84697214  0.90806164    -0.05880
C1642       C  0.22297831  0.85757828  0.89082070    -0.33310
C1643       C  0.22521841  0.88332941  0.86266892     0.35940
C1644       C  0.19509124  0.90277919  0.85191882    -0.06240
C1645       C  0.16185235  0.89269305  0.86804738    -0.33210
C1646       C  0.15917835  0.86383284  0.89462417     0.35850
H1647       H  0.24781398  0.84481347  0.89817598     0.16220
O1648       O  0.25751203  0.88929981  0.84575420    -0.60710
H1649       H  0.13777405  0.90624199  0.85907393     0.16230
O1650       O  0.12641158  0.85076688  0.90514694    -0.60800
H1651       H  0.11195163  0.87245494  0.91078302     0.43230
H1652       H  0.26965531  0.90646688  0.86076610     0.43180
C1653       C  0.26333219  0.60916397  0.87033414    -0.05880
C1654       C  0.24028831  0.63722461  0.85832707    -0.33310
C1655       C  0.24380536  0.67285748  0.86996682     0.35940
C1656       C  0.26963587  0.68049201  0.89495891    -0.06240
C1657       C  0.29405210  0.65268121  0.90474665    -0.33210
C1658       C  0.29133985  0.61767695  0.89243184     0.35850
H1659       H  0.21929553  0.63144192  0.84019050     0.16220
O1660       O  0.22025385  0.69916588  0.85884189    -0.60710
H1661       H  0.31382259  0.65735168  0.92453447     0.16230
O1662       O  0.31475726  0.59137604  0.90424159    -0.60800
H1663       H  0.30412720  0.58165914  0.92702956     0.43230
H1664       H  0.23253600  0.71202513  0.83846919     0.43180
C1665       C  0.39348817  0.65584459  0.75766654    -0.05880
C1666       C  0.35837722  0.67113487  0.76060877    -0.33310
C1667       C  0.32721907  0.64996410  0.76646989     0.35940
C1668       C  0.32957355  0.61196498  0.76894396    -0.06240
C1669       C  0.36465433  0.59660429  0.76613207    -0.33210
C1670       C  0.39591967  0.61781674  0.76083932     0.35850
H1671       H  0.35469751  0.70023769  0.75840490     0.16220
O1672       O  0.29460950  0.66693001  0.76879418    -0.60710
H1673       H  0.36814822  0.56744654  0.76782126     0.16230
O1674       O  0.42851083  0.60085109  0.75830554    -0.60800
H1675       H  0.43718145  0.59911075  0.78302726     0.43230
H1676       H  0.29077311  0.67151375  0.79447065     0.43180
C1677       C  0.33026718  0.92940816  0.74945913    -0.05880
C1678       C  0.36007895  0.94165703  0.72990598    -0.33310
C1679       C  0.38097752  0.91761664  0.71028022     0.35940
C1680       C  0.37246355  0.88023330  0.71071385    -0.06240
C1681       C  0.34065445  0.86878632  0.72733384    -0.33210
C1682       C  0.32030474  0.89252878  0.74757921     0.35850
H1683       H  0.36709404  0.97008598  0.72941523     0.16220
O1684       O  0.41085452  0.93062058  0.69242434    -0.60710
H1685       H  0.33422297  0.84017938  0.72880831     0.16230
O1686       O  0.29108798  0.87902322  0.76617836    -0.60800
H1687       H  0.30044151  0.86931509  0.78909468     0.43230
H1688       H  0.42417335  0.94483215  0.70954823     0.43180
C1689       C  0.09269669  0.67017807  0.73787876    -0.05880
C1690       C  0.09138845  0.63462878  0.75082143    -0.33310
C1691       C  0.11852766  0.60895242  0.74332240     0.35940
C1692       C  0.14618583  0.61508186  0.71708789    -0.06240
C1693       C  0.14876463  0.65218897  0.70549975    -0.33170
C1694       C  0.12311230  0.67946438  0.71623321     0.35850
H1695       H  0.07020608  0.62726016  0.76984883     0.16220
O1696       O  0.12080878  0.57996680  0.76629790    -0.60710
H1697       H  0.17162187  0.66054426  0.68912469     0.16230
O1698       O  0.12791142  0.71479179  0.70480431    -0.60800
H1699       H  0.14225229  0.72569651  0.72337858     0.43230
H1700       H  0.09618998  0.57347744  0.77434320     0.43180
C1701       C  0.07667671  0.84207404  0.70258569    -0.05880
C1702       C  0.06997111  0.85771126  0.73589244    -0.33310
C1703       C  0.09022559  0.88524185  0.74859787     0.35940
C1704       C  0.12077463  0.89618597  0.72983144    -0.06240
C1705       C  0.13229717  0.87572488  0.70084493    -0.33210
C1706       C  0.11007154  0.84944818  0.68627849     0.35850
H1707       H  0.04682337  0.85024976  0.75129713     0.16220
O1708       O  0.07900620  0.90235709  0.77871278    -0.60710
H1709       H  0.15945255  0.87813610  0.69211591     0.16230
O1710       O  0.12189265  0.82999188  0.65783204    -0.60800
H1711       H  0.13611724  0.80964907  0.66825974     0.43230
H1712       H  0.09211778  0.89009507  0.79840356     0.43180
C1713       C  0.39386564  0.78152789  0.64394849    -0.05880
C1714       C  0.35935916  0.77583354  0.65968567    -0.33310
C1715       C  0.32847380  0.77696086  0.63945066     0.35940
C1716       C  0.33136898  0.78557334  0.60298593    -0.06240
C1717       C  0.36550787  0.79343313  0.58787387    -0.33210
C1718       C  0.39656846  0.78967242  0.60746958     0.35850
H1719       H  0.35595886  0.77011380  0.68804944     0.16220
O1720       O  0.29561405  0.77179042  0.65577740    -0.60710
H1721       H  0.36841282  0.80145571  0.56014904     0.16230
O1722       O  0.42920698  0.79316266  0.59051241    -0.60800
H1723       H  0.43515046  0.76869789  0.58188060     0.43230
H1724       H  0.29715259  0.74847168  0.66965320     0.43180
C1725       C  0.13408899  0.73983578  0.57816280    -0.05880
C1726       C  0.09841343  0.74346909  0.56796902    -0.33310
C1727       C  0.07071413  0.72613817  0.58795728     0.35940
C1728       C  0.07806457  0.70418502  0.61870522    -0.06240
C1729       C  0.11381207  0.69606323  0.62513631    -0.33210
C1730       C  0.14160852  0.71430853  0.60626312     0.35850
H1731       H  0.09163245  0.76129702  0.54557175     0.16220
O1732       O  0.03604242  0.73353689  0.57921037    -0.60710
H1733       H  0.12018562  0.67781141  0.64695209     0.16230
O1734       O  0.17599872  0.70737864  0.61625652    -0.60800
H1735       H  0.17974316  0.72300604  0.63673711     0.43230
H1736       H  0.03085692  0.75818193  0.58781149     0.43180
C1737       C  0.14190910  0.70272958  0.89372329    -0.05880
C1738       C  0.11285175  0.68030075  0.90231916    -0.33310
C1739       C  0.07906862  0.68800842  0.88853232     0.35940
C1740       C  0.07466137  0.71723018  0.86387817    -0.06240
C1741       C  0.10433729  0.73734350  0.85223738    -0.33210
C1742       C  0.13763324  0.73069894  0.86724641     0.35850
H1743       H  0.11583388  0.65859473  0.92193808     0.16220
O1744       O  0.04997752  0.66928976  0.90209754    -0.60710
H1745       H  0.10153265  0.75885089  0.83205743     0.16230
O1746       O  0.16548002  0.75317709  0.85760185    -0.60800
H1747       H  0.15945052  0.77689429  0.86794353     0.43230
H1748       H  0.03928661  0.65740479  0.88174396     0.43180
C1749       C  0.38146562  0.78615626  0.82773834    -0.05880
C1750       C  0.36610407  0.75187959  0.83325895    -0.33310
C1751       C  0.35278344  0.74051966  0.86708759     0.35940
C1752       C  0.35413828  0.76398068  0.89579154    -0.06240
C1753       C  0.36317322  0.80043763  0.88770319    -0.33210
C1754       C  0.37829427  0.81116634  0.85472522     0.35850
H1755       H  0.36790683  0.73231002  0.81249310     0.16220
O1756       O  0.34052401  0.70590064  0.87216477    -0.60710
H1757       H  0.35899133  0.82101364  0.90679611     0.16230
O1758       O  0.39039692  0.84593907  0.84928773    -0.60800
H1759       H  0.41342210  0.84659104  0.86164526     0.43230
H1760       H  0.32503291  0.70135934  0.85180590     0.43180
C1761       C  0.32773633  0.86633278  0.96905734    -0.05880
C1762       C  0.31721536  0.89922153  0.98480413    -0.33310
C1763       C  0.33749341  0.91434444  0.01194041     0.35940
C1764       C  0.36723480  0.89520997  0.52651434    -0.06240
C1765       C  0.37185448  0.86016904  0.51425238    -0.33210
C1766       C  0.35988978  0.85098219  0.98225835     0.35850
H1767       H  0.29253248  0.91241852  0.97704675     0.16220
O1768       O  0.32980562  0.94865251  0.02274458    -0.60710
H1769       H  0.39522269  0.84480481  0.52265992     0.16230
O1770       O  0.38189139  0.83006275  0.96187224    -0.60800
H1771       H  0.39831453  0.85255358  0.44627409     0.43230
H1772       H  0.31158071  0.94546812  0.04216386     0.43180
C1773       C  0.43403402  0.62614896  0.52661332    -0.05880
C1774       C  0.44725818  0.65871774  0.01389958    -0.33310
C1775       C  0.42884191  0.69134643  0.02104853     0.35940
C1776       C  0.39634191  0.69160154  0.54045485    -0.06240
C1777       C  0.38780272  0.65915697  0.55914564    -0.33210
C1778       C  0.40502832  0.62641229  0.55127983     0.35850
H1779       H  0.47079117  0.65955424  0.99656267     0.16220
O1780       O  0.44113564  0.72342098  0.00598688    -0.60710
H1781       H  0.36373673  0.65799825  0.57551337     0.16230
O1782       O  0.39121388  0.59437701  0.56510272    -0.60800
H1783       H  0.38214027  0.59901962  0.58957310     0.43230
H1784       H  0.42411829  0.73061032  0.98723579     0.43180
C1785       C  0.17386650  0.92601287  0.52275247    -0.05880
C1786       C  0.15871154  0.92894687  0.55718971    -0.33310
C1787       C  0.12091520  0.93457435  0.56419737     0.35940
C1788       C  0.09766409  0.94100466  0.53586878    -0.06240
C1789       C  0.11548837  0.94609620  0.50166854    -0.33210
C1790       C  0.13405525  0.88562257  0.01007810     0.35850
H1791       H  0.17758752  0.92791775  0.57762359     0.16220
O1792       O  0.10731373  0.93425374  0.59829426    -0.60710
H1793       H  0.07719720  0.88067159  0.01064065     0.16230
O1794       O  0.13635470  0.86251643  0.98271630    -0.60800
H1795       H  0.14104391  0.87884436  0.96174123     0.43230
H1796       H  0.09491829  0.91080623  0.60188821     0.43180
C1797       C  0.09722154  0.57686038  0.98798635    -0.05880
C1798       C  0.08633811  0.61151367  0.97529069    -0.33310
C1799       C  0.10029980  0.64270436  0.98847770     0.35940
C1800       C  0.13097121  0.64052154  0.00895547    -0.06240
C1801       C  0.14182129  0.61071175  0.51693363    -0.33210
C1802       C  0.12466650  0.57933893  0.50650086     0.35850
H1803       H  0.06303362  0.61462293  0.95897030     0.16220
O1804       O  0.08408278  0.67530440  0.98010374    -0.60710
H1805       H  0.16330997  0.60801635  0.53559223     0.16230
O1806       O  0.13227692  0.54663757  0.52317806    -0.60800
H1807       H  0.14915190  0.53431449  0.50673327     0.43230
H1808       H  0.06715557  0.67964935  0.00026216     0.43180
C1809       C  0.36642841  0.97612624  0.94451317    -0.05880
C1810       C  0.36373176  0.94701047  0.92176455    -0.33310
C1811       C  0.33288788  0.94212900  0.90282506     0.35940
C1812       C  0.30415016  0.96659863  0.90656964    -0.06240
C1813       C  0.30499469  0.99258326  0.93288846    -0.33210
C1814       C  0.33614065  0.99783300  0.95156625     0.35850
H1815       H  0.38633723  0.92914883  0.91699189     0.16220
O1816       O  0.33274018  0.91611979  0.87768339    -0.60710
H1817       H  0.28329471  0.01198491  0.93567996     0.16230
O1818       O  0.33791195  0.02673683  0.97337811    -0.60800
H1819       H  0.32614227  0.01853773  0.99615296     0.43230
H1820       H  0.32760085  0.89309439  0.89117901     0.43180
C1821       C  0.12676157  0.56043533  0.83592361    -0.05880
C1822       C  0.10398263  0.53040351  0.83367977    -0.33310
C1823       C  0.06988009  0.52992987  0.84693335     0.35940
C1824       C  0.05888733  0.55758182  0.86855904    -0.06240
C1825       C  0.08148391  0.58795566  0.87228063    -0.33210
C1826       C  0.11496047  0.59007363  0.85478525     0.35850
H1827       H  0.11239500  0.50538263  0.82313825     0.16220
O1828       O  0.05300730  0.99571119  0.84824933    -0.60710
H1829       H  0.07451196  0.60850013  0.89081746     0.16230
O1830       O  0.13683335  0.61899221  0.85905137    -0.60800
H1831       H  0.15213625  0.61176849  0.87929968     0.43230
H1832       H  0.06273293  0.97936780  0.86723051     0.43180
C1833       C  0.06281742  0.53268534  0.63523373    -0.05880
C1834       C  0.05894457  0.49817332  0.65269257    -0.33310
C1835       C  0.05794846  0.49387867  0.69025856     0.35940
C1836       C  0.06328303  0.52391714  0.71117324    -0.06240
C1837       C  0.05843135  0.55849350  0.69418954    -0.33210
C1838       C  0.06083363  0.56316192  0.65673100     0.35850
H1839       H  0.06430713  0.97079750  0.63730666     0.16220
O1840       O  0.06290203  0.95534526  0.70624634    -0.60710
H1841       H  0.05988418  0.58239227  0.70983870     0.16230
O1842       O  0.06213312  0.59754904  0.64172291    -0.60800
H1843       H  0.08758820  0.60449476  0.64210663     0.43230
H1844       H  0.07435592  0.93811909  0.68971251     0.43180
C1845       C  0.40538942  0.48431791  0.61037569    -0.05880
C1846       C  0.38050214  0.95398376  0.61218658    -0.33310
C1847       C  0.34589444  0.95639335  0.62714455     0.35940
C1848       C  0.33362401  0.49074734  0.63569127    -0.06240
C1849       C  0.35565168  0.52090819  0.63192372    -0.33210
C1850       C  0.39156252  0.51749852  0.62169425     0.35850
H1851       H  0.38805409  0.92881725  0.60104848     0.16220
O1852       O  0.32586361  0.92569528  0.63240913    -0.60710
H1853       H  0.34575963  0.54732180  0.63868005     0.16230
O1854       O  0.41262102  0.54752763  0.62005524    -0.60800
H1855       H  0.40548387  0.56189035  0.64089781     0.43230
H1856       H  0.31182863  0.92396594  0.61054348     0.43180
C1857       C  0.41186374  0.67732705  0.87058621    -0.05880
C1858       C  0.39842870  0.64707086  0.85339017    -0.33310
C1859       C  0.39760048  0.61275198  0.87053169     0.35940
C1860       C  0.40786080  0.60954789  0.90599079    -0.06240
C1861       C  0.40829316  0.64166174  0.92559992    -0.33210
C1862       C  0.41286638  0.67543773  0.90774465     0.35850
H1863       H  0.39515875  0.64867286  0.82514861     0.16220
O1864       O  0.39387599  0.58256209  0.85080865    -0.60710
H1865       H  0.41321037  0.63984238  0.95380627     0.16230
O1866       O  0.42363597  0.70464370  0.92603559    -0.60800
H1867       H  0.44975095  0.70138740  0.92853587     0.43230
H1868       H  0.36777557  0.57930521  0.84913798     0.43180
C1869       C  0.02881805  0.91339099  0.89183367    -0.05880
C1870       C  0.01637513  0.91929124  0.85683042    -0.33310
C1871       C  0.51147689  0.89104390  0.82958433     0.35940
C1872       C  0.03351831  0.85722754  0.83661279    -0.06240
C1873       C  0.04518033  0.85070216  0.87207881    -0.33210
C1874       C  0.04221415  0.87764380  0.89917954     0.35850
H1875       H  0.49376039  0.94170330  0.85145034     0.16220
O1876       O  0.49310992  0.89791768  0.79891795    -0.60710
H1877       H  0.05431156  0.82368223  0.87974480     0.16230
O1878       O  0.05012526  0.86764361  0.93360381    -0.60800
H1879       H  0.02767899  0.85762725  0.94423728     0.43230
H1880       H  0.46759898  0.89460302  0.80576876     0.43180
C1881       C  0.98914449  0.87366297  0.57094098    -0.05880
C1882       C  0.45554787  0.86892443  0.58935965    -0.33310
C1883       C  0.45250520  0.88061559  0.62579015     0.35940
C1884       C  0.98480624  0.88855988  0.65437932    -0.06240
C1885       C  0.01693239  0.88003804  0.63455711    -0.33210
C1886       C  0.01983467  0.87031376  0.59765113     0.35850
H1887       H  0.43116158  0.86230474  0.57648019     0.16220
O1888       O  0.41913737  0.88930706  0.63834930    -0.60710
H1889       H  0.04155386  0.87886206  0.64888962     0.16230
O1890       O  0.05251970  0.85806686  0.58564072    -0.60800
H1891       H  0.05843598  0.87240896  0.56354478     0.43230
H1892       H  0.40271512  0.87012548  0.63108221     0.43180
C1893       C  0.45629080  0.66149808  0.63157259    -0.05880
C1894       C  0.97748490  0.65725130  0.60324849    -0.33310
C1895       C  0.99222326  0.62365597  0.59788179     0.35940
C1896       C  0.48781981  0.59422056  0.62273742    -0.06240
C1897       C  0.46347065  0.59854517  0.65064120    -0.33210
C1898       C  0.44549269  0.63131115  0.65344254     0.35850
H1899       H  0.98684472  0.67996918  0.58658320     0.16220
O1900       O  0.01758353  0.62088281  0.57117350    -0.60710
H1901       H  0.45592236  0.57563259  0.66795122     0.16230
O1902       O  0.41933399  0.63442717  0.67936394    -0.60800
H1903       H  0.39657372  0.63175186  0.66691106     0.43230
H1904       H  0.00711083  0.63161610  0.54917044     0.43180
O1905       O  0.52981074  0.06892836  0.41579987    -0.88590
C1906       C  0.98285759  0.05663074  0.10536101     1.11450
O1907       O  0.48553909  0.02177949  0.46311279    -1.36400
O1908       O  0.55826929  0.06125687  0.07908764    -0.90080
O1909       O  0.50493840  0.52502515  0.38501032    -0.90740
O1910       O  0.54083609  0.45469410  0.43936086    -0.79570
O1911       O  0.54317968  0.06519046  0.49388770    -1.01650
C1912       C  0.55533300  0.44267972  0.03791772     1.21490
O1913       O  0.97468790  0.45765186  0.00501140    -1.36550
Mn1914     Mn  0.95214875  0.01170051  0.00866885     1.82060
O1915       O  0.54585302  0.44239879  0.00714736    -0.78640
O1916       O  0.56491105  0.00359265  0.08102410    -0.88040
C1917       C  0.93179432  0.97908152  0.08151800     1.12580
C1918       C  0.56788493  0.03254031  0.09631654     1.07300
O1919       O  0.90491042  0.00294885  0.48419260    -0.79580
O1920       O  0.50431238  0.01445408  0.03367151    -1.33270
O1921       O  0.93029009  0.46884532  0.44292528    -0.98790
C1922       C  0.99551237  0.36465750  0.01926488     1.06010
Mn1923     Mn  0.51337078  0.98763424  0.08487700     1.48570
O1924       O  0.98130684  0.38169603  0.50673556    -0.87990
Mn1925     Mn  0.96527283  0.49823509  0.41604290     1.49560
O1926       O  0.95833704  0.09182573  0.43442166    -0.91870
C1927       C  0.57090246  0.04946083  0.48641174     1.19210
C1928       C  0.93292235  0.07983125  0.41704759     1.11270
Mn1929     Mn  0.52250719  0.48592184  0.48602848     1.80970
O1930       O  0.96143107  0.46990253  0.08786086    -0.97020
Mn1931     Mn  0.50289273  0.07609724  0.46184558     1.49260
C1932       C  0.52769242  0.04991174  0.38882210     1.07780
Mn1933     Mn  0.97646762  0.43118183  0.05741120     1.49930
C1934       C  0.90259579  0.41011167  0.02486153     1.10690
O1935       O  0.98980592  0.44936331  0.42815572    -1.02820
O1936       O  0.49837934  0.03079778  0.11884463    -0.92480
C1937       C  0.51874572  0.44058283  0.41922295     1.21970
O1938       O  0.53042409  0.44369538  0.06191143    -1.03210
O1939       O  0.47706392  0.06133607  0.07485088    -0.90610
O1940       O  0.92080932  0.41804206  0.05168543    -0.90210
O1941       O  0.93102907  0.04658792  0.40797486    -0.90240
Mn1942     Mn  0.51663180  0.06857806  0.03866344     1.47860
O1943       O  0.92445225  0.99781449  0.05412119    -0.78710
C1944       C  0.90290611  0.48219287  0.45589809     1.15020
O1945       O  0.57015388  0.01603413  0.47914462    -0.77440
O1946       O  0.93074869  0.06250869  0.51530775    -0.77060
Mn1947     Mn  0.95760326  0.42735185  0.46679365     1.51060
O1948       O  0.99200917  0.38291673  0.04302729    -0.89410
O1949       O  0.48091091  0.08638720  0.50662209    -0.96940
O1950       O  0.91114337  0.41509434  0.48829955    -0.91950
C1951       C  0.94895298  0.09062187  0.51404439     1.12810
O1952       O  0.53225784  0.20023689  0.32432399    -0.88590
C1953       C  0.95803145  0.19548743  0.14877314     1.11450
O1954       O  0.98238039  0.24484292  0.28325560    -1.36400
O1955       O  0.53217214  0.18208853  0.16536665    -0.90080
O1956       O  0.51935148  0.25395079  0.34928132    -0.90740
O1957       O  0.54582955  0.30457972  0.29194396    -0.79570
O1958       O  0.52932309  0.18258699  0.24794918    -1.01650
C1959       C  0.55410651  0.30950931  0.19462749     1.21490
O1960       O  0.97813965  0.30446054  0.23600329    -1.36550
Mn1961     Mn  0.94856401  0.25783848  0.24098689     1.82060
O1962       O  0.56069767  0.28397432  0.21539304    -0.78640
O1963       O  0.55051667  0.23841248  0.15994283    -0.88040
C1964       C  0.92530669  0.27781103  0.16820091     1.12580
C1965       C  0.55249968  0.20643885  0.15048597     1.07300
O1966       O  0.90475145  0.27532202  0.27096385    -0.79580
O1967       O  0.49381704  0.23992942  0.21155353    -1.33270
O1968       O  0.93657079  0.30605512  0.30432563    -0.98790
C1969       C  0.48453522  0.38521019  0.19024527     1.06010
Mn1970     Mn  0.50235656  0.26305914  0.15904698     1.48570
O1971       O  0.96252679  0.38834827  0.21959915    -0.87990
Mn1972     Mn  0.97297501  0.27673185  0.32817672     1.49560
O1973       O  0.95592017  0.18347821  0.32793390    -0.91870
C1974       C  0.55989020  0.19508794  0.24662113     1.19210
C1975       C  0.93718436  0.20068342  0.34994489     1.11270
Mn1976     Mn  0.52228612  0.26814787  0.25026318     1.80970
O1977       O  0.95599905  0.28851352  0.15978507    -0.97020
Mn1978     Mn  0.49341626  0.18805617  0.28846982     1.49260
C1979       C  0.53918219  0.22576158  0.34495371     1.07780
Mn1980     Mn  0.97909581  0.32753497  0.18426828     1.49930
C1981       C  0.90229996  0.35446124  0.21669220     1.10690
O1982       O  0.99332326  0.32127665  0.30446089    -1.02820
O1983       O  0.47791424  0.22040906  0.13400073    -0.92480
C1984       C  0.52439599  0.32712262  0.30759473     1.21970
O1985       O  0.52715878  0.30777354  0.17498791    -1.03210
O1986       O  0.45036713  0.19628047  0.18013676    -0.90610
O1987       O  0.92443309  0.34812016  0.19136098    -0.90210
O1988       O  0.94045896  0.23486684  0.35432003    -0.90240
Mn1989     Mn  0.49326880  0.18373348  0.21087771     1.47860
O1990       O  0.91813879  0.26763729  0.19941057    -0.78710
C1991       C  0.90804134  0.29166220  0.29920630     1.15020
O1992       O  0.56375873  0.22767673  0.25607786    -0.77440
O1993       O  0.91771723  0.21334989  0.24618708    -0.77060
Mn1994     Mn  0.95859567  0.34461720  0.26848454     1.51060
O1995       O  0.00904744  0.36713885  0.20363693    -0.89410
O1996       O  0.95854609  0.17358730  0.25289568    -0.96940
O1997       O  0.90933926  0.34764319  0.24857854    -0.91950
C1998       C  0.92583511  0.18126197  0.25255060     1.12810
O1999       O  0.78753168  0.05809199  0.34906250    -0.88590
C2000       C  0.80015762  0.99040820  0.16183706     1.11450
O2001       O  0.74153245  0.01303974  0.30395421    -1.36400
O2002       O  0.80724758  0.06593743  0.18695742    -0.90080
O2003       O  0.72842331  0.06138859  0.36010116    -0.90740
O2004       O  0.68370949  0.08148369  0.30843274    -0.79570
O2005       O  0.80275132  0.05535761  0.27097903    -1.01650
C2006       C  0.67665388  0.08681772  0.21637665     1.21490
O2007       O  0.68324610  0.00871170  0.26018669    -1.36550
Mn2008     Mn  0.72834319  0.97728257  0.26460878     1.82060
O2009       O  0.70084038  0.09388409  0.23686914    -0.78640
O2010       O  0.75113058  0.08223052  0.17815853    -0.88040
C2011       C  0.71151507  0.45497830  0.19185259     1.12580
C2012       C  0.78355968  0.08404095  0.16937019     1.07300
O2013       O  0.71280000  0.43055542  0.29888789    -0.79580
O2014       O  0.74863879  0.02295806  0.23201478    -1.33270
O2015       O  0.68501223  0.46403225  0.33387724    -0.98790
C2016       C  0.59550932  0.01931267  0.23993217     1.06010
Mn2017     Mn  0.72723345  0.03311525  0.18063856     1.48570
O2018       O  0.59772659  0.00104281  0.26935319    -0.87990
Mn2019     Mn  0.70904431  0.00964417  0.34849200     1.49560
O2020       O  0.79345094  0.97542782  0.34677042    -0.91870
C2021       C  0.79642671  0.08749939  0.27193295     1.19210
C2022       C  0.77886443  0.97523261  0.37751626     1.11270
Mn2023     Mn  0.72066934  0.05453738  0.27043764     1.80970
O2024       O  0.70165671  0.98678590  0.18442049    -0.97020
Mn2025     Mn  0.79627171  0.01871115  0.31024371     1.49260
C2026       C  0.75951029  0.07522460  0.35934932     1.07780
Mn2027     Mn  0.66115867  0.00896749  0.20909195     1.49930
C2028       C  0.63476447  0.43008973  0.24314051     1.10690
O2029       O  0.67314063  0.02758920  0.31685375    -1.02820
O2030       O  0.77254081  0.00884505  0.15298628    -0.92480
C2031       C  0.66311160  0.05738347  0.32191773     1.21970
O2032       O  0.68056239  0.05808400  0.19849679    -1.03210
O2033       O  0.80686867  0.98392939  0.19387786    -0.90610
O2034       O  0.63921277  0.45504036  0.21887087    -0.90210
O2035       O  0.74902266  0.48419724  0.38210659    -0.90240
Mn2036     Mn  0.80462576  0.02429422  0.23019037     1.47860
O2037       O  0.71957393  0.44533989  0.22294014    -0.78710
C2038       C  0.69674214  0.43385930  0.32864125     1.15020
O2039       O  0.76326494  0.09603016  0.27590535    -0.77440
O2040       O  0.77240460  0.44425009  0.26793993    -0.77060
Mn2041     Mn  0.64810268  0.48407042  0.29985245     1.51060
O2042       O  0.62199439  0.03565309  0.22945629    -0.89410
O2043       O  0.80714314  0.98793192  0.26974586    -0.96940
O2044       O  0.63961016  0.43504963  0.27604916    -0.91950
C2045       C  0.80091169  0.95571139  0.26694282     1.12810
O2046       O  0.83362123  0.22310276  0.44234863    -0.88590
C2047       C  0.65319634  0.17292576  0.50983602     1.11450
O2048       O  0.78525064  0.25240038  0.50214231    -1.36400
O2049       O  0.68226393  0.18585242  0.44061524    -0.90080
O2050       O  0.84286696  0.28012269  0.45641057    -0.90740
O2051       O  0.78595593  0.32304992  0.44353288    -0.79570
O2052       O  0.76072019  0.20172614  0.45279254    -1.01650
C2053       C  0.68807405  0.31878694  0.43885323     1.21490
O2054       O  0.73159653  0.30680391  0.01611865    -1.36550
Mn2055     Mn  0.73910861  0.25585502  0.04082319     1.82060
O2056       O  0.71787450  0.30512395  0.43309661    -0.78640
O2057       O  0.67633472  0.24427202  0.43318154    -0.88040
C2058       C  0.66181766  0.25816535  0.06028941     1.12580
C2059       C  0.66743354  0.21353842  0.42535504     1.07300
O2060       O  0.77034134  0.26837532  0.08635046    -0.79580
O2061       O  0.71503458  0.24072141  0.49247492    -1.33270
O2062       O  0.80172918  0.30349283  0.05384161    -0.98790
C2063       C  0.70337901  0.39659189  0.51572798     1.06010
Mn2064     Mn  0.66249648  0.25750438  0.48347328     1.48570
O2065       O  0.73300136  0.39140364  0.53170050    -0.87990
Mn2066     Mn  0.82432951  0.28858152  0.00985757     1.49560
O2067       O  0.84065052  0.19375552  0.51769912    -0.91870
C2068       C  0.76205751  0.21297567  0.42251359     1.19210
C2069       C  0.86282539  0.21344892  0.03130897     1.11270
Mn2070     Mn  0.75081448  0.27916341  0.46594225     1.80970
O2071       O  0.65618352  0.27639072  0.03249019    -0.97020
Mn2072     Mn  0.79996529  0.20083412  0.48359115     1.49260
C2073       C  0.84278605  0.25545689  0.43385329     1.07780
Mn2074     Mn  0.67741150  0.32505964  0.01766539     1.49930
C2075       C  0.70688305  0.34411349  0.09527530     1.10690
O2076       O  0.79323204  0.32832034  0.49657648    -1.02820
O2077       O  0.64210573  0.20379489  0.49743697    -0.92480
C2078       C  0.79777691  0.34199472  0.46790501     1.21970
O2079       O  0.67143382  0.30952478  0.46732796    -1.03210
O2080       O  0.68484361  0.16884444  0.51961668    -0.90610
O2081       O  0.68191984  0.34172880  0.07239311    -0.90210
O2082       O  0.86256555  0.24802262  0.02749800    -0.90240
Mn2083     Mn  0.72268136  0.18485319  0.48229797     1.47860
O2084       O  0.69291275  0.25662074  0.07255097    -0.78710
C2085       C  0.79922207  0.28539254  0.08107948     1.15020
O2086       O  0.76232618  0.24727804  0.41821619    -0.77440
O2087       O  0.74615075  0.20619484  0.06500447    -0.77060
Mn2088     Mn  0.76575844  0.34214402  0.04063217     1.51060
O2089       O  0.69355171  0.37389630  0.99605042    -0.89410
O2090       O  0.76413920  0.17708715  0.51637222    -0.96940
O2091       O  0.73936700  0.33790056  0.08793700    -0.91950
C2092       C  0.76055880  0.17943783  0.05130646     1.12810
C2093       C  0.79105112  0.10382954  0.13482587    -0.05880
C2094       C  0.80320407  0.13942714  0.13456499    -0.33310
C2095       C  0.79601718  0.16343121  0.10565836     0.35940
C2096       C  0.77696717  0.15198585  0.07601703    -0.06240
C2097       C  0.76842319  0.11547451  0.07448607    -0.33210
C2098       C  0.77496078  0.09159956  0.10359003     0.35850
H2099       H  0.81508027  0.14969469  0.15813420     0.16220
O2100       O  0.80609456  0.19879448  0.10747587    -0.60710
H2101       H  0.75356997  0.10611201  0.05228823     0.16230
O2102       O  0.76160579  0.05732344  0.10271405    -0.60800
H2103       H  0.77920225  0.04362813  0.08816473     0.43230
H2104       H  0.78760946  0.20984775  0.12305925     0.43180
C2105       C  0.70885337  0.42520073  0.16752151    -0.05880
C2106       C  0.73425306  0.39717948  0.17034973    -0.33310
C2107       C  0.73039301  0.36539621  0.15204962     0.35940
C2108       C  0.70090806  0.36148172  0.12984787    -0.06240
C2109       C  0.67255695  0.38592225  0.13317326    -0.33210
C2110       C  0.67748132  0.41931100  0.14926017     0.35850
H2111       H  0.75742195  0.40004940  0.18667116     0.16220
O2112       O  0.75633489  0.33894649  0.15459731    -0.60710
H2113       H  0.64828207  0.38107133  0.11940842     0.16230
O2114       O  0.65065442  0.44477134  0.14903561    -0.60800
H2115       H  0.65882427  0.46422891  0.13192795     0.43230
H2116       H  0.77839692  0.34986369  0.14393260     0.43180
C2117       C  0.67689148  0.34438688  0.40820907    -0.05880
C2118       C  0.69311531  0.33839380  0.37426625    -0.33310
C2119       C  0.69892809  0.36646777  0.34828882     0.35940
C2120       C  0.68765032  0.40220807  0.35461783    -0.06240
C2121       C  0.66729241  0.40741723  0.38659226    -0.33210
C2122       C  0.66132361  0.37873257  0.41277359     0.35850
H2123       H  0.70440549  0.31195026  0.36883224     0.16220
O2124       O  0.71697497  0.35862846  0.31726356    -0.60710
H2125       H  0.65659785  0.43412123  0.39180306     0.16230
O2126       O  0.64190278  0.38468637  0.44344934    -0.60800
H2127       H  0.62119666  0.40001352  0.43653912     0.43230
H2128       H  0.74248608  0.35770895  0.32353299     0.43180
C2129       C  0.76344435  0.11305997  0.37077192    -0.05880
C2130       C  0.74030106  0.14105623  0.35855208    -0.33310
C2131       C  0.74324801  0.17676125  0.37050219     0.35940
C2132       C  0.76845171  0.18446993  0.39607230    -0.06240
C2133       C  0.79278890  0.15665064  0.40624913    -0.33210
C2134       C  0.79085795  0.12174896  0.39347722     0.35850
H2135       H  0.71964710  0.13515174  0.34007934     0.16220
O2136       O  0.71970949  0.20306046  0.35922122    -0.60710
H2137       H  0.81201980  0.16121440  0.42656490     0.16230
O2138       O  0.81440484  0.09565000  0.40548799    -0.60800
H2139       H  0.80324104  0.08515556  0.42770431     0.43230
H2140       H  0.73169083  0.21527864  0.33830371     0.43180
C2141       C  0.89366811  0.15581678  0.25800895    -0.05880
C2142       C  0.85865952  0.17141861  0.26108132    -0.33310
C2143       C  0.82719827  0.15055224  0.26658528     0.35940
C2144       C  0.82903208  0.11250287  0.26858173    -0.06240
C2145       C  0.86398592  0.09680431  0.26555631    -0.33210
C2146       C  0.89557319  0.11771125  0.26064877     0.35850
H2147       H  0.85529203  0.20057698  0.25935772     0.16220
O2148       O  0.79480552  0.16790340  0.26920202    -0.60710
H2149       H  0.86713404  0.06760229  0.26688598     0.16230
O2150       O  0.92796255  0.10037043  0.25797977    -0.60800
H2151       H  0.93664396  0.09834926  0.28268705     0.43230
H2152       H  0.79121740  0.17242575  0.29492008     0.43180
C2153       C  0.82885076  0.42806455  0.24991940    -0.05880
C2154       C  0.85834073  0.44055722  0.22998775    -0.33310
C2155       C  0.87977040  0.41651992  0.21095909     0.35940
C2156       C  0.87203466  0.37896573  0.21224707    -0.06240
C2157       C  0.84052692  0.36714663  0.22926454    -0.33210
C2158       C  0.81970018  0.39093859  0.24899247     0.35850
H2159       H  0.86484666  0.46912422  0.22894499     0.16220
O2160       O  0.90964525  0.42968968  0.19322405    -0.60710
H2161       H  0.83479908  0.33840004  0.23152332     0.16230
O2162       O  0.79108910  0.37719644  0.26835048    -0.60800
H2163       H  0.80044416  0.37102919  0.29229085     0.43230
H2164       H  0.92278168  0.44396814  0.21043140     0.43180
C2165       C  0.59104457  0.16972250  0.23766863    -0.05880
C2166       C  0.59017155  0.13501547  0.25281915    -0.33310
C2167       C  0.61726376  0.10910805  0.24636031     0.35940
C2168       C  0.64399854  0.11348875  0.21873758    -0.06240
C2169       C  0.64604271  0.14981524  0.20468725    -0.33170
C2170       C  0.62074092  0.17772816  0.21458124     0.35850
H2171       H  0.56968557  0.12881978  0.27298241     0.16220
O2172       O  0.62049684  0.08223929  0.27161603    -0.60710
H2173       H  0.66834816  0.15716842  0.18710705     0.16230
O2174       O  0.62526137  0.21242274  0.20113414    -0.60800
H2175       H  0.63988923  0.22447058  0.21876137     0.43230
H2176       H  0.59608728  0.07439344  0.27909981     0.43180
C2177       C  0.57534795  0.34221023  0.20316899    -0.05880
C2178       C  0.56588221  0.35914500  0.23523620    -0.33310
C2179       C  0.58556632  0.38664294  0.24899131     0.35940
C2180       C  0.61826328  0.39576701  0.23322183    -0.06240
C2181       C  0.63207155  0.37379730  0.20626617    -0.33210
C2182       C  0.61059094  0.34762115  0.19050543     0.35850
H2183       H  0.54121013  0.35268487  0.24866409     0.16220
O2184       O  0.57148933  0.40596550  0.27658212    -0.60710
H2185       H  0.65992002  0.37561243  0.19935768     0.16230
O2186       O  0.62473789  0.32623559  0.16449922    -0.60800
H2187       H  0.63719755  0.30613534  0.17742649     0.43230
H2188       H  0.58442452  0.39706903  0.29791395     0.43180
C2189       C  0.89358488  0.28065587  0.14512183    -0.05880
C2190       C  0.85923208  0.27450435  0.16107881    -0.33310
C2191       C  0.82810799  0.27549724  0.14113119     0.35940
C2192       C  0.83051707  0.28442117  0.10469906    -0.06240
C2193       C  0.86449891  0.29276383  0.08934602    -0.33210
C2194       C  0.89582612  0.28902589  0.10863860     0.35850
H2195       H  0.85612332  0.26857711  0.18943324     0.16220
O2196       O  0.79544129  0.27006994  0.15777247    -0.60710
H2197       H  0.86709226  0.30127947  0.06167969     0.16230
O2198       O  0.92827634  0.29279187  0.09137608    -0.60800
H2199       H  0.93434958  0.26836438  0.08272605     0.43230
H2200       H  0.79727989  0.24674153  0.17158986     0.43180
C2201       C  0.63258287  0.23685042  0.07892800    -0.05880
C2202       C  0.59699140  0.24209650  0.06915944    -0.33310
C2203       C  0.56906802  0.22497619  0.08872809     0.35940
C2204       C  0.57621476  0.20186764  0.11866993    -0.06240
C2205       C  0.61167675  0.19167185  0.12404231    -0.33210
C2206       C  0.63980881  0.20964609  0.10549330     0.35850
H2207       H  0.59048424  0.26119569  0.04767428     0.16220
O2208       O  0.53453378  0.23405530  0.08080861    -0.60710
H2209       H  0.61766592  0.17207884  0.14490275     0.16230
O2210       O  0.67418867  0.20077216  0.11416416    -0.60800
H2211       H  0.67902845  0.21474316  0.13554861     0.43230
H2212       H  0.53060091  0.25875983  0.08980037     0.43180
C2213       C  0.63410472  0.21299935  0.40569714    -0.05880
C2214       C  0.63260799  0.19765818  0.37248967    -0.33310
C2215       C  0.60212382  0.20236524  0.35191002     0.35940
C2216       C  0.57235278  0.22211254  0.36499999    -0.06240
C2217       C  0.57460639  0.23893910  0.39745461    -0.33210
C2218       C  0.60518081  0.23506436  0.41748086     0.35850
H2219       H  0.65570112  0.18381333  0.36165581     0.16220
O2220       O  0.60229247  0.18898569  0.31836645    -0.60710
H2221       H  0.55258183  0.25518346  0.40751981     0.16230
O2222       O  0.60688984  0.25358077  0.44845008    -0.60800
H2223       H  0.58849385  0.24277053  0.46492357     0.43230
H2224       H  0.61736215  0.20585422  0.30352490     0.43180
C2225       C  0.88159752  0.28670129  0.32837560    -0.05880
C2226       C  0.86696700  0.25219414  0.33444636    -0.33310
C2227       C  0.85303915  0.24156055  0.36818470     0.35940
C2228       C  0.85279135  0.26609362  0.39608154    -0.06240
C2229       C  0.86032862  0.30266493  0.38692442    -0.33210
C2230       C  0.87659589  0.31266223  0.35424985     0.35850
H2231       H  0.86991127  0.23198345  0.31435784     0.16220
O2232       O  0.84169873  0.20670508  0.37400408    -0.60710
H2233       H  0.85391073  0.32379043  0.40490359     0.16230
O2234       O  0.88776276  0.34764509  0.34795654    -0.60800
H2235       H  0.91033535  0.34948023  0.36092728     0.43230
H2236       H  0.82664912  0.20115603  0.35358600     0.43180
C2237       C  0.82654182  0.36887837  0.46697289    -0.05880
C2238       C  0.81636981  0.40142544  0.48343984    -0.33310
C2239       C  0.83675915  0.41531183  0.51099310     0.35940
C2240       C  0.86764493  0.39284014  0.02649843    -0.06240
C2241       C  0.87173228  0.35838587  0.01253504    -0.33210
C2242       C  0.85911773  0.35342793  0.47879693     0.35850
H2243       H  0.79160227  0.41487762  0.47636809     0.16220
O2244       O  0.82930334  0.44915612  0.52314775    -0.60710
H2245       H  0.89532969  0.34258080  0.01943833     0.16230
O2246       O  0.88162938  0.33479964  0.45676348    -0.60800
H2247       H  0.89392250  0.35383050  0.94226891     0.43230
H2248       H  0.81183550  0.44520606  0.54313634     0.43180
C2249       C  0.93037163  0.12611350  0.02723225    -0.05880
C2250       C  0.94689461  0.15953521  0.51276899    -0.33310
C2251       C  0.92829826  0.19218583  0.51964373     0.35940
C2252       C  0.89450493  0.19196589  0.04228611    -0.06240
C2253       C  0.88692730  0.16002076  0.06227977    -0.33210
C2254       C  0.90344237  0.12708340  0.05401719     0.35850
H2255       H  0.96986723  0.16021549  0.49468305     0.16220
O2256       O  0.94022816  0.22409741  0.50387840    -0.60710
H2257       H  0.86411730  0.15935819  0.08045221     0.16230
O2258       O  0.89124823  0.09563991  0.07043902    -0.60800
H2259       H  0.89025175  0.10020538  0.09630498     0.43230
H2260       H  0.92209800  0.23182402  0.48640311     0.43180
C2261       C  0.67270198  0.42502569  0.02625907    -0.05880
C2262       C  0.65673173  0.42615431  0.06047872    -0.33310
C2263       C  0.61903011  0.43241133  0.06686306     0.35940
C2264       C  0.59679593  0.44107647  0.03821068    -0.06240
C2265       C  0.61543840  0.44747670  0.00467392    -0.33210
C2266       C  0.65384687  0.43988512  0.49721860     0.35850
H2267       H  0.67492102  0.42258909  0.08125232     0.16220
O2268       O  0.60447840  0.43000462  0.10059388    -0.60710
H2269       H  0.60300782  0.45652005  0.47960897     0.16230
O2270       O  0.66917111  0.44650896  0.46412538    -0.60800
H2271       H  0.67666411  0.47219418  0.46394079     0.43230
H2272       H  0.59292951  0.40601473  0.10270879     0.43180
C2273       C  0.60207494  0.07326116  0.48377819    -0.05880
C2274       C  0.59555043  0.10592336  0.46480001    -0.33310
C2275       C  0.60797015  0.13890252  0.47642784     0.35940
C2276       C  0.63266727  0.13934312  0.50398332    -0.06240
C2277       C  0.64183373  0.10682122  0.01953017    -0.33210
C2278       C  0.62623295  0.07411082  0.00993511     0.35850
H2279       H  0.57563556  0.10671413  0.44444244     0.16220
O2280       O  0.59360801  0.17070989  0.46286691    -0.60710
H2281       H  0.66133201  0.10604506  0.04032107     0.16230
O2282       O  0.63288172  0.04287553  0.02961123    -0.60800
H2283       H  0.64993128  0.02879850  0.01481578     0.43230
H2284       H  0.58655234  0.16662571  0.43807236     0.43180
C2285       C  0.86779679  0.47429197  0.44148966    -0.05880
C2286       C  0.86455164  0.44531694  0.41861121    -0.33310
C2287       C  0.83284678  0.44010657  0.40102656     0.35940
C2288       C  0.80407288  0.46431497  0.40593999    -0.06240
C2289       C  0.80571300  0.49021856  0.43217720    -0.33210
C2290       C  0.83749096  0.49573304  0.44960809     0.35850
H2291       H  0.88711904  0.42766682  0.41302661     0.16220
O2292       O  0.83154694  0.41392094  0.37610903    -0.60710
H2293       H  0.78398284  0.50943666  0.43581809     0.16230
O2294       O  0.83966319  0.52465407  0.47137313    -0.60800
H2295       H  0.82748696  0.51683955  0.49405912     0.43230
H2296       H  0.82030155  0.39276254  0.38875410     0.43180
C2297       C  0.62893200  0.05936513  0.34188583    -0.05880
C2298       C  0.61224713  0.02571559  0.34926321    -0.33310
C2299       C  0.57650053  0.02314862  0.35680240     0.35940
C2300       C  0.55732266  0.05450790  0.36382694    -0.06240
C2301       C  0.57397241  0.08877065  0.35939251    -0.33210
C2302       C  0.60980823  0.09110845  0.34797618     0.35850
H2303       H  0.62654809  0.00030137  0.34853620     0.16220
O2304       O  0.55795790  0.49088403  0.35530354    -0.60710
H2305       H  0.55974115  0.11325053  0.36658483     0.16230
O2306       O  0.62609014  0.12385096  0.34371573    -0.60800
H2307       H  0.64435124  0.12357697  0.36235762     0.43230
H2308       H  0.56897474  0.47673529  0.37515443     0.43180
C2309       C  0.56901949  0.03003393  0.13666941    -0.05880
C2310       C  0.56577006  0.99546145  0.15412900    -0.33310
C2311       C  0.56412016  0.99089864  0.19171833     0.35940
C2312       C  0.56678417  0.02104872  0.21318786    -0.06240
C2313       C  0.56270689  0.05557800  0.19575938    -0.33210
C2314       C  0.56598150  0.06035450  0.15829811     0.35850
H2315       H  0.56325577  0.47095404  0.13960802     0.16220
O2316       O  0.56169903  0.45578942  0.20851976    -0.60710
H2317       H  0.56287846  0.07952805  0.21143910     0.16230
O2318       O  0.56675114  0.09479908  0.14339950    -0.60800
H2319       H  0.59204336  0.10224905  0.14407890     0.43230
H2320       H  0.57326164  0.43859275  0.19202206     0.43180
C2321       C  0.90143368  0.97709460  0.10802080    -0.05880
C2322       C  0.87950517  0.45260628  0.11421342    -0.33310
C2323       C  0.84471647  0.45454580  0.12886913     0.35940
C2324       C  0.83058562  0.98535840  0.13673093    -0.06240
C2325       C  0.85360106  0.01463832  0.13273754    -0.33210
C2326       C  0.88883478  0.01033962  0.12061662     0.35850
H2327       H  0.88785361  0.42741574  0.10355705     0.16220
O2328       O  0.82558563  0.42340126  0.13516752    -0.60710
H2329       H  0.84511106  0.04109362  0.14103932     0.16230
O2330       O  0.91051951  0.03980409  0.11894977    -0.60800
H2331       H  0.90649007  0.05184245  0.14183941     0.43230
H2332       H  0.81177487  0.42036591  0.11334543     0.43180
C2333       C  0.91212090  0.17672283  0.37079323    -0.05880
C2334       C  0.89890360  0.14659258  0.35324085    -0.33310
C2335       C  0.89754374  0.11222510  0.37025094     0.35940
C2336       C  0.90722873  0.10880328  0.40586924    -0.06240
C2337       C  0.90723664  0.14085150  0.42563353    -0.33210
C2338       C  0.91233771  0.17468098  0.40797756     0.35850
H2339       H  0.89621811  0.14828742  0.32495347     0.16220
O2340       O  0.89389732  0.08215281  0.35035114    -0.60710
H2341       H  0.91156313  0.13888787  0.45395514     0.16230
O2342       O  0.92273811  0.20379146  0.42659312    -0.60800
H2343       H  0.94885126  0.20069700  0.42924422     0.43230
H2344       H  0.86780176  0.07878983  0.34876724     0.43180
C2345       C  0.52716405  0.41327603  0.38920816    -0.05880
C2346       C  0.50985769  0.41758875  0.35638488    -0.33310
C2347       C  0.01618772  0.39237970  0.33043243     0.35940
C2348       C  0.53156100  0.35816654  0.33355834    -0.06240
C2349       C  0.54964186  0.35377169  0.36625369    -0.33210
C2350       C  0.54728148  0.38038904  0.39361190     0.35850
H2351       H  0.00205323  0.44483337  0.35086217     0.16220
O2352       O  0.00037548  0.40062313  0.29858587    -0.60710
H2353       H  0.56372663  0.32852986  0.37181988     0.16230
O2354       O  0.56249292  0.37238061  0.42570669    -0.60800
H2355       H  0.54411154  0.35871565  0.43991671     0.43230
H2356       H  0.97439790  0.39803605  0.30348595     0.43180
C2357       C  0.48932388  0.37095757  0.06471109    -0.05880
C2358       C  0.95645684  0.36799374  0.09104394    -0.33310
C2359       C  0.95306219  0.37975883  0.12740431     0.35940
C2360       C  0.48246937  0.38468131  0.14713707    -0.06240
C2361       C  0.51545447  0.37699255  0.12834691    -0.33210
C2362       C  0.51945272  0.36710435  0.09171930     0.35850
H2363       H  0.93225731  0.36101198  0.07801433     0.16220
O2364       O  0.91950076  0.38786280  0.13979176    -0.60710
H2365       H  0.53980232  0.37675179  0.14318273     0.16230
O2366       O  0.55258311  0.35567768  0.08009125    -0.60800
H2367       H  0.55863625  0.37045580  0.05830115     0.43230
H2368       H  0.90344018  0.36840841  0.13243087     0.43180
C2369       C  0.95550427  0.16059084  0.13290899    -0.05880
C2370       C  0.47913891  0.15693191  0.10325655    -0.33310
C2371       C  0.49644413  0.12422298  0.10011646     0.35940
C2372       C  0.98296649  0.09155945  0.12157015    -0.06240
C2373       C  0.95969361  0.09672652  0.15028271    -0.33210
C2374       C  0.94380826  0.13049305  0.15446473     0.35850
H2375       H  0.48777540  0.17953926  0.08605933     0.16220
O2376       O  0.52290870  0.12128706  0.07440230    -0.60710
H2377       H  0.95201138  0.07416504  0.16792164     0.16230
O2378       O  0.91855942  0.13439146  0.18111047    -0.60800
H2379       H  0.89532686  0.13273363  0.16929373     0.43230
H2380       H  0.51254808  0.12980012  0.05151899     0.43180
O2381       O  0.52867419  0.06966697  0.91520737    -0.88590
C2382       C  0.98633812  0.06095835  0.60577176     1.11450
O2383       O  0.48521747  0.02218912  0.96302198    -1.36400
O2384       O  0.55766649  0.06098757  0.58023043    -0.90080
O2385       O  0.50538054  0.52386259  0.88519842    -0.90740
O2386       O  0.54004670  0.45348702  0.94054100    -0.79570
O2387       O  0.54267169  0.06587253  0.99306887    -1.01650
C2388       C  0.55713794  0.44293195  0.53655543     1.21490
O2389       O  0.97600742  0.46319911  0.50068144    -1.36550
Mn2390     Mn  0.95311874  0.01068917  0.50898997     1.82060
O2391       O  0.54754573  0.44341137  0.50578213    -0.78640
O2392       O  0.56443895  0.00341599  0.58193938    -0.88040
C2393       C  0.93315594  0.98611082  0.58326101     1.12580
C2394       C  0.56724623  0.03225769  0.59741476     1.07300
O2395       O  0.90518966  0.00252088  0.98272299    -0.79580
O2396       O  0.50409545  0.01408627  0.53398684    -1.33270
O2397       O  0.92888741  0.46971896  0.94497837    -0.98790
C2398       C  0.98887782  0.36711434  0.53959881     1.06010
Mn2399     Mn  0.51287242  0.98756571  0.58534515     1.48570
O2400       O  0.98556025  0.37954315  0.98860280    -0.87990
Mn2401     Mn  0.96530976  0.49889868  0.91861219     1.49560
O2402       O  0.95334493  0.09162368  0.93543708    -0.91870
C2403       C  0.57042439  0.05032233  0.98531191     1.19210
C2404       C  0.92933097  0.07820887  0.91716593     1.11270
Mn2405     Mn  0.52128832  0.48494768  0.98676671     1.80970
O2406       O  0.96130817  0.46368266  0.58376313    -0.97020
Mn2407     Mn  0.50203446  0.07669396  0.96151126     1.49260
C2408       C  0.52681625  0.05039028  0.88838353     1.07780
Mn2409     Mn  0.97734678  0.43241430  0.54433400     1.49930
C2410       C  0.90096952  0.41260535  0.51974563     1.10690
O2411       O  0.98934641  0.44890334  0.92720791    -1.02820
O2412       O  0.49755516  0.03092954  0.61914309    -0.92480
C2413       C  0.51834415  0.43975527  0.91972933     1.21970
O2414       O  0.53242017  0.44385666  0.56079177    -1.03210
O2415       O  0.47656195  0.06143283  0.57496992    -0.90610
O2416       O  0.92213119  0.41790694  0.54445334    -0.90210
O2417       O  0.93003095  0.04523085  0.90706969    -0.90240
Mn2418     Mn  0.51658810  0.06811109  0.53916700     1.47860
O2419       O  0.92425207  0.00049648  0.55424267    -0.78710
C2420       C  0.90161414  0.48204862  0.95872801     1.15020
O2421       O  0.56989128  0.01680428  0.97831075    -0.77440
O2422       O  0.92753559  0.06241210  0.01695266    -0.77060
Mn2423     Mn  0.95624264  0.42707244  0.96457072     1.51060
O2424       O  0.98607334  0.38611569  0.56262334    -0.89410
O2425       O  0.48046741  0.08719545  0.00658305    -0.96940
O2426       O  0.91465243  0.41154572  0.99357552    -0.91950
C2427       C  0.94534851  0.09078975  0.01536512     1.12810
O2428       O  0.53198089  0.19889136  0.82458895    -0.88590
C2429       C  0.95663256  0.19892107  0.64726513     1.11450
O2430       O  0.98172017  0.24219640  0.78384567    -1.36400
O2431       O  0.53252130  0.18248013  0.66531513    -0.90080
O2432       O  0.51893574  0.25251284  0.84968285    -0.90740
O2433       O  0.54581894  0.30336451  0.79325338    -0.79570
O2434       O  0.52924772  0.18202360  0.74798556    -1.01650
C2435       C  0.55463707  0.30932797  0.69552642     1.21490
O2436       O  0.97705140  0.30353159  0.74035912    -1.36550
Mn2437     Mn  0.94765917  0.25705620  0.74186910     1.82060
O2438       O  0.56098180  0.28398869  0.71665951    -0.78640
O2439       O  0.55071337  0.23887912  0.66005797    -0.88040
C2440       C  0.92397316  0.28293500  0.67029073     1.12580
C2441       C  0.55287958  0.20692498  0.65059790     1.07300
O2442       O  0.90343993  0.27165576  0.77289813    -0.79580
O2443       O  0.49400251  0.23988171  0.71190438    -1.33270
O2444       O  0.93444380  0.30018254  0.80867427    -0.98790
C2445       C  0.48587502  0.38559902  0.69342147     1.06010
Mn2446     Mn  0.50255651  0.26347430  0.65953995     1.48570
O2447       O  0.96780636  0.38932941  0.73764935    -0.87990
Mn2448     Mn  0.97262758  0.27241229  0.83025739     1.49560
O2449       O  0.95559129  0.17943246  0.82680700    -0.91870
C2450       C  0.55985929  0.19440048  0.74696753     1.19210
C2451       C  0.93709254  0.19599274  0.84950451     1.11270
Mn2452     Mn  0.52232677  0.26754994  0.75112546     1.80970
O2453       O  0.95468109  0.29373473  0.66233506    -0.97020
Mn2454     Mn  0.49322337  0.18711280  0.78844708     1.49260
C2455       C  0.53881092  0.22437984  0.84530673     1.07780
Mn2456     Mn  0.97978639  0.32959856  0.69003541     1.49930
C2457       C  0.90501511  0.35840246  0.72389515     1.10690
O2458       O  0.99406731  0.31857473  0.80902256    -1.02820
O2459       O  0.47808580  0.22115619  0.63395805    -0.92480
C2460       C  0.52449277  0.32602126  0.80885416     1.21970
O2461       O  0.52754395  0.30770801  0.67607050    -1.03210
O2462       O  0.45060149  0.19679079  0.67999052    -0.90610
O2463       O  0.92807920  0.35390848  0.69917554    -0.90210
O2464       O  0.94059069  0.22984356  0.85501703    -0.90240
Mn2465     Mn  0.49337479  0.18370740  0.71072482     1.47860
O2466       O  0.91700712  0.27028955  0.70080036    -0.78710
C2467       C  0.90619618  0.28627503  0.80209583     1.15020
O2468       O  0.56375912  0.22692186  0.75662226    -0.77440
O2469       O  0.91695075  0.21257673  0.74407577    -0.77060
Mn2470     Mn  0.95618049  0.34023730  0.77726053     1.51060
O2471       O  0.01040695  0.36309703  0.71671372    -0.89410
O2472       O  0.95781818  0.17298726  0.75115498    -0.96940
O2473       O  0.90874628  0.34614434  0.75485064    -0.91950
C2474       C  0.92514158  0.18064075  0.75094834     1.12810
O2475       O  0.78766941  0.05795794  0.84889770    -0.88590
C2476       C  0.80086039  0.99262724  0.66153606     1.11450
O2477       O  0.74227535  0.01244200  0.80395287    -1.36400
O2478       O  0.80663469  0.06708631  0.68727654    -0.90080
O2479       O  0.72861058  0.06052462  0.86060179    -0.90740
O2480       O  0.68359143  0.08038225  0.80863712    -0.79570
O2481       O  0.80273558  0.05526506  0.77095002    -1.01650
C2482       C  0.67651637  0.08603131  0.71683300     1.21490
O2483       O  0.68395180  0.00771095  0.76029838    -1.36550
Mn2484     Mn  0.72959513  0.97671226  0.76458799     1.82060
O2485       O  0.70067559  0.09315060  0.73732943    -0.78640
O2486       O  0.75037736  0.08260997  0.67838526    -0.88040
C2487       C  0.71197818  0.45552030  0.69182574     1.12580
C2488       C  0.78275911  0.08478224  0.66953587     1.07300
O2489       O  0.71132438  0.43189077  0.79915215    -0.79580
O2490       O  0.74916713  0.02274808  0.73211513    -1.33270
O2491       O  0.68380331  0.46554337  0.83410886    -0.98790
C2492       C  0.59571082  0.01805499  0.74029848     1.06010
Mn2493     Mn  0.72729757  0.03309045  0.68083501     1.48570
O2494       O  0.59842956  0.99980305  0.76969387    -0.87990
Mn2495     Mn  0.70973084  0.00867842  0.84864774     1.49560
O2496       O  0.79475322  0.97510261  0.84621956    -0.91870
C2497       C  0.79624000  0.08731351  0.77202401     1.19210
C2498       C  0.77994133  0.97424427  0.87686593     1.11270
Mn2499     Mn  0.72089840  0.05385030  0.77067243     1.80970
O2500       O  0.70233170  0.98626337  0.68459189    -0.97020
Mn2501     Mn  0.79710811  0.01850033  0.80994013     1.49260
C2502       C  0.75955105  0.07469779  0.85969350     1.07780
Mn2503     Mn  0.66158588  0.00805168  0.70927329     1.49930
C2504       C  0.63452751  0.43131268  0.74276177     1.10690
O2505       O  0.67308498  0.02648242  0.81779403    -1.02820
O2506       O  0.77283695  0.01024965  0.65272480    -0.92480
C2507       C  0.66291291  0.05637297  0.82221361     1.21970
O2508       O  0.68052644  0.05734859  0.69891221    -1.03210
O2509       O  0.80698147  0.98502203  0.69343040    -0.90610
O2510       O  0.63954954  0.45593763  0.71825767    -0.90210
O2511       O  0.74766741  0.48584756  0.88310182    -0.90240
Mn2512     Mn  0.80512232  0.02477744  0.73001321     1.47860
O2513       O  0.71923702  0.44587173  0.72314987    -0.78710
C2514       C  0.69547143  0.43531738  0.82896847     1.15020
O2515       O  0.76308007  0.09569248  0.77622701    -0.77440
O2516       O  0.77057480  0.44506260  0.76969941    -0.77060
Mn2517     Mn  0.64729231  0.48580982  0.79949858     1.51060
O2518       O  0.62198332  0.03446506  0.72926117    -0.89410
O2519       O  0.80936494  0.98774751  0.76909487    -0.96940
O2520       O  0.63870731  0.43670746  0.77574070    -0.91950
C2521       C  0.80318303  0.95547014  0.76592984     1.12810
O2522       O  0.83338299  0.22179367  0.94612019    -0.88590
C2523       C  0.65132908  0.17413395  0.01010314     1.11450
O2524       O  0.78366365  0.25288934  0.00376573    -1.36400
O2525       O  0.68153085  0.18661676  0.94144766    -0.90080
O2526       O  0.84020581  0.27995985  0.95743991    -0.90740
O2527       O  0.78511107  0.32377306  0.94496893    -0.79570
O2528       O  0.75980313  0.20177477  0.95473352    -1.01650
C2529       C  0.68751036  0.31978488  0.93947703     1.21490
O2530       O  0.73281383  0.30607007  0.51519527    -1.36550
Mn2531     Mn  0.74072029  0.25492166  0.53953467     1.82060
O2532       O  0.71715409  0.30567091  0.93381853    -0.78640
O2533       O  0.67571855  0.24506993  0.93364750    -0.88040
C2534       C  0.66332188  0.25737683  0.55994533     1.12580
C2535       C  0.66697487  0.21424540  0.92584340     1.07300
O2536       O  0.77166532  0.26753420  0.58516510    -0.79580
O2537       O  0.71365013  0.24151525  0.99355947    -1.33270
O2538       O  0.80274132  0.30282722  0.55263456    -0.98790
C2539       C  0.70195286  0.39717272  0.01728639     1.06010
Mn2540     Mn  0.66133647  0.25849270  0.98380899     1.48570
O2541       O  0.73133795  0.39183922  0.03362992    -0.87990
Mn2542     Mn  0.82589017  0.28810829  0.50885979     1.49560
O2543       O  0.83720898  0.19415044  0.02262941    -0.91870
C2544       C  0.76149871  0.21266850  0.92435256     1.19210
C2545       C  0.86513716  0.21305423  0.52903930     1.11270
Mn2546     Mn  0.74976961  0.27962103  0.96708537     1.80970
O2547       O  0.65764994  0.27556790  0.53214817    -0.97020
Mn2548     Mn  0.79827762  0.20083863  0.98657901     1.49260
C2549       C  0.84101052  0.25417718  0.93611756     1.07780
Mn2550     Mn  0.67862475  0.32430287  0.51702469     1.49930
C2551       C  0.70856068  0.34452419  0.59421640     1.10690
O2552       O  0.79178084  0.32906701  0.99801370    -1.02820
O2553       O  0.64044548  0.20493247  0.99739731    -0.92480
C2554       C  0.79652056  0.34291692  0.96946978     1.21970
O2555       O  0.67060008  0.31056099  0.96781517    -1.03210
O2556       O  0.68268851  0.17026270  0.02069297    -0.90610
O2557       O  0.68345293  0.34155436  0.57156969    -0.90210
O2558       O  0.86396225  0.24777486  0.52760899    -0.90240
Mn2559     Mn  0.72110151  0.18558767  0.98378143     1.47860
O2560       O  0.69463253  0.25505771  0.57161731    -0.78710
C2561       C  0.80023454  0.28505547  0.58007376     1.15020
O2562       O  0.76162506  0.24700393  0.91966658    -0.77440
O2563       O  0.74841423  0.20520174  0.56309171    -0.77060
Mn2564     Mn  0.76714802  0.34160131  0.53919179     1.51060
O2565       O  0.69451820  0.37304278  0.49497340    -0.89410
O2566       O  0.76171083  0.17785132  0.01851697    -0.96940
O2567       O  0.74101502  0.33826053  0.58676610    -0.91950
C2568       C  0.76311402  0.17867448  0.54922984     1.12810
C2569       C  0.79008449  0.10400031  0.63455014    -0.05880
C2570       C  0.80423345  0.13884872  0.63323239    -0.33310
C2571       C  0.79836831  0.16237291  0.60358047     0.35940
C2572       C  0.77896648  0.15103571  0.57410815    -0.06240
C2573       C  0.76829740  0.11506027  0.57375778    -0.33210
C2574       C  0.77328077  0.09179522  0.60366126     0.35850
H2575       H  0.81673984  0.14910307  0.65646795     0.16220
O2576       O  0.81008277  0.19730090  0.60444638    -0.60710
H2577       H  0.75284768  0.10591412  0.55187652     0.16230
O2578       O  0.75785670  0.05837812  0.60377971    -0.60800
H2579       H  0.77371508  0.04363639  0.58833989     0.43230
H2580       H  0.79256129  0.20948577  0.62024453     0.43180
C2581       C  0.70995429  0.42596143  0.66707279    -0.05880
C2582       C  0.73545369  0.39804920  0.66981570    -0.33310
C2583       C  0.73207920  0.36653134  0.65090761     0.35940
C2584       C  0.70272306  0.36254837  0.62853214    -0.06240
C2585       C  0.67435906  0.38700523  0.63165923    -0.33210
C2586       C  0.67905051  0.42032979  0.64798764     0.35850
H2587       H  0.75839099  0.40088367  0.68641448     0.16220
O2588       O  0.75818416  0.34025151  0.65338459    -0.60710
H2589       H  0.65020613  0.38213017  0.61771981     0.16230
O2590       O  0.65217523  0.44573702  0.64768718    -0.60800
H2591       H  0.66039959  0.46522028  0.63063477     0.43230
H2592       H  0.78014729  0.35134669  0.64270023     0.43180
C2593       C  0.67675010  0.34572686  0.90885416    -0.05880
C2594       C  0.69339076  0.34002412  0.87504528    -0.33310
C2595       C  0.69881393  0.36812376  0.84903312     0.35940
C2596       C  0.68674012  0.40366773  0.85512417    -0.06240
C2597       C  0.66619664  0.40861401  0.88704325    -0.33210
C2598       C  0.66061042  0.37986960  0.91328856     0.35850
H2599       H  0.70516663  0.31378117  0.86966473     0.16220
O2600       O  0.71737457  0.36052245  0.81823301    -0.60710
H2601       H  0.65502703  0.43515015  0.89215107     0.16230
O2602       O  0.64092591  0.38560697  0.94384909    -0.60800
H2603       H  0.61973600  0.40008710  0.93668703     0.43230
H2604       H  0.74286690  0.36201086  0.82433567     0.43180
C2605       C  0.76318324  0.11240731  0.87181083    -0.05880
C2606       C  0.74071335  0.14080548  0.85911126    -0.33310
C2607       C  0.74338587  0.17635632  0.87170432     0.35940
C2608       C  0.76768308  0.18355391  0.89834251    -0.06240
C2609       C  0.79098286  0.15513177  0.90948157    -0.33210
C2610       C  0.78943123  0.12046457  0.89602790     0.35850
H2611       H  0.72079437  0.13532329  0.83971686     0.16220
O2612       O  0.72038572  0.20293833  0.85990605    -0.60710
H2613       H  0.80941058  0.15925146  0.93065185     0.16230
O2614       O  0.81221984  0.09396390  0.90866089    -0.60800
H2615       H  0.80012680  0.08338555  0.93035301     0.43230
H2616       H  0.73325513  0.21552139  0.83973603     0.43180
C2617       C  0.89312208  0.15533145  0.75689308    -0.05880
C2618       C  0.85832592  0.17106935  0.76133701    -0.33310
C2619       C  0.82692736  0.15027273  0.76718681     0.35940
C2620       C  0.82870227  0.11225465  0.76823595    -0.06240
C2621       C  0.86347258  0.09643653  0.76388245    -0.33210
C2622       C  0.89498150  0.11724364  0.75852303     0.35850
H2623       H  0.85510275  0.20025681  0.76043424     0.16220
O2624       O  0.79467398  0.16764827  0.77113091    -0.60710
H2625       H  0.86654597  0.06722650  0.76446713     0.16230
O2626       O  0.92723674  0.09986855  0.75460482    -0.60800
H2627       H  0.93624863  0.09658120  0.77910558     0.43230
H2628       H  0.79199812  0.17184359  0.79699783     0.43180
C2629       C  0.82734773  0.43051545  0.75272378    -0.05880
C2630       C  0.86066936  0.44386286  0.74321975    -0.33310
C2631       C  0.88598528  0.42147903  0.72837998     0.35940
C2632       C  0.87723668  0.38530170  0.72071233    -0.06240
C2633       C  0.84268946  0.37292472  0.72707221    -0.33210
C2634       C  0.81789078  0.39485362  0.74403178     0.35850
H2635       H  0.86787156  0.47147162  0.74862503     0.16220
O2636       O  0.91982439  0.43483529  0.72399847    -0.60710
H2637       H  0.83620703  0.34486737  0.72279960     0.16230
O2638       O  0.78500018  0.38072246  0.75284029    -0.60800
H2639       H  0.78815638  0.36740004  0.77595290     0.43230
H2640       H  0.92723632  0.44218755  0.74786628     0.43180
C2641       C  0.59098430  0.16896360  0.73807167    -0.05880
C2642       C  0.58978878  0.13406584  0.75277811    -0.33310
C2643       C  0.61689623  0.10813752  0.74636642     0.35940
C2644       C  0.64390113  0.11272503  0.71906434    -0.06240
C2645       C  0.64626154  0.14920809  0.70549388    -0.33170
C2646       C  0.62100530  0.17711950  0.71548597     0.35850
H2647       H  0.56905593  0.12772880  0.77264114     0.16220
O2648       O  0.61997960  0.08112415  0.77150726    -0.60710
H2649       H  0.66880139  0.15667649  0.68827000     0.16230
O2650       O  0.62589235  0.21196849  0.70261639    -0.60800
H2651       H  0.64037087  0.22362040  0.72062496     0.43230
H2652       H  0.59552283  0.07344298  0.77900529     0.43180
C2653       C  0.57589953  0.34213024  0.70388031    -0.05880
C2654       C  0.56733309  0.35829576  0.73655793    -0.33310
C2655       C  0.58678939  0.38615657  0.74994659     0.35940
C2656       C  0.61844459  0.39668024  0.73289170    -0.06240
C2657       C  0.63158893  0.37567098  0.70486496    -0.33210
C2658       C  0.61022316  0.34909647  0.68954077     0.35850
H2659       H  0.54320421  0.35120831  0.75055877     0.16220
O2660       O  0.57353238  0.40426277  0.77869454    -0.60710
H2661       H  0.65908047  0.37823887  0.69709914     0.16230
O2662       O  0.62364734  0.32897533  0.66222665    -0.60800
H2663       H  0.63749914  0.30904737  0.67387802     0.43230
H2664       H  0.58685934  0.39421279  0.79932528     0.43180
C2665       C  0.89261588  0.28605603  0.64675672    -0.05880
C2666       C  0.85832359  0.27769682  0.66173028    -0.33310
C2667       C  0.82784189  0.27691961  0.64091424     0.35940
C2668       C  0.83085220  0.28567536  0.60446425    -0.06240
C2669       C  0.86466915  0.29594112  0.58996858    -0.33210
C2670       C  0.89536204  0.29538743  0.61041687     0.35850
H2671       H  0.85483773  0.27122185  0.68995321     0.16220
O2672       O  0.79512396  0.26950719  0.65666327    -0.60710
H2673       H  0.86765214  0.30362096  0.56211769     0.16230
O2674       O  0.92771039  0.30358528  0.59445042    -0.60800
H2675       H  0.93678959  0.28043665  0.58493714     0.43230
H2676       H  0.79779738  0.24596247  0.66995047     0.43180
C2677       C  0.63384871  0.23675810  0.57910114    -0.05880
C2678       C  0.59828337  0.24207678  0.56920055    -0.33310
C2679       C  0.57017888  0.22537524  0.58890257     0.35940
C2680       C  0.57706253  0.20246932  0.61906085    -0.06240
C2681       C  0.61249311  0.19239597  0.62483894    -0.33210
C2682       C  0.64079635  0.21003214  0.60620758     0.35850
H2683       H  0.59194406  0.26086072  0.54740190     0.16220
O2684       O  0.53572316  0.23451681  0.58071865    -0.60710
H2685       H  0.61831846  0.17307411  0.64596886     0.16230
O2686       O  0.67507755  0.20131019  0.61535561    -0.60800
H2687       H  0.67978651  0.21586168  0.63638540     0.43230
H2688       H  0.53179013  0.25925382  0.58962727     0.43180
C2689       C  0.63383379  0.21344195  0.90599121    -0.05880
C2690       C  0.63232564  0.19703024  0.87330883    -0.33310
C2691       C  0.60173429  0.20095250  0.85274609     0.35940
C2692       C  0.57194762  0.22097563  0.86539443    -0.06240
C2693       C  0.57425542  0.23879361  0.89730644    -0.33210
C2694       C  0.60488497  0.23571264  0.91725504     0.35850
H2695       H  0.65547180  0.18291727  0.86287952     0.16220
O2696       O  0.60180521  0.18655322  0.81964130    -0.60710
H2697       H  0.55222931  0.25525752  0.90701577     0.16230
O2698       O  0.60654965  0.25511227  0.94768353    -0.60800
H2699       H  0.58831540  0.24456233  0.96450496     0.43230
H2700       H  0.61691874  0.20293941  0.80431048     0.43180
C2701       C  0.87869355  0.28188666  0.83000170    -0.05880
C2702       C  0.86554637  0.24708291  0.83736768    -0.33310
C2703       C  0.85178179  0.23749632  0.87138893     0.35940
C2704       C  0.85030809  0.26342707  0.89803112    -0.06240
C2705       C  0.85616902  0.29992694  0.88735044    -0.33210
C2706       C  0.87215400  0.30901278  0.85439387     0.35850
H2707       H  0.86980463  0.22607833  0.81826634     0.16220
O2708       O  0.84207705  0.20238997  0.87888219    -0.60710
H2709       H  0.84912762  0.32162172  0.90454586     0.16230
O2710       O  0.88204314  0.34415174  0.84653824    -0.60800
H2711       H  0.90427502  0.34762787  0.85968362     0.43230
H2712       H  0.82900258  0.19429417  0.85799200     0.43180
C2713       C  0.82558191  0.36961386  0.96900777    -0.05880
C2714       C  0.81659150  0.40151253  0.98726642    -0.33310
C2715       C  0.83827622  0.41395461  0.01463205     0.35940
C2716       C  0.86631717  0.39541934  0.52418663    -0.06240
C2717       C  0.87084987  0.36013345  0.51277850    -0.33210
C2718       C  0.85840148  0.35340409  0.97876591     0.35850
H2719       H  0.79189874  0.41575227  0.98146760     0.16220
O2720       O  0.83215182  0.44759498  0.02790038    -0.60710
H2721       H  0.89435334  0.34501142  0.52126989     0.16230
O2722       O  0.87927004  0.33502762  0.95504274    -0.60800
H2723       H  0.89674611  0.35351979  0.44445128     0.43230
H2724       H  0.81414067  0.44377952  0.04742155     0.43180
C2725       C  0.93375571  0.12592792  0.52624864    -0.05880
C2726       C  0.94306700  0.15935570  0.01244710    -0.33310
C2727       C  0.92517686  0.19220823  0.01971764     0.35940
C2728       C  0.89660799  0.19146421  0.54082092    -0.06240
C2729       C  0.88838707  0.15910812  0.55978493    -0.33210
C2730       C  0.90546498  0.12634115  0.55171666     0.35850
H2731       H  0.96518044  0.15957815  0.99330739     0.16220
O2732       O  0.93641538  0.22377867  0.00275266    -0.60710
H2733       H  0.86468948  0.15801720  0.57669411     0.16230
O2734       O  0.89226874  0.09443360  0.56642302    -0.60800
H2735       H  0.88508532  0.09925716  0.59141682     0.43230
H2736       H  0.91833316  0.23003677  0.98473810     0.43180
C2737       C  0.67446443  0.42483876  0.52452408    -0.05880
C2738       C  0.65864268  0.42640643  0.55877690    -0.33310
C2739       C  0.62094780  0.43263775  0.56520855     0.35940
C2740       C  0.59860271  0.44092393  0.53657133    -0.06240
C2741       C  0.61715646  0.44722557  0.50295515    -0.33210
C2742       C  0.65214354  0.44024026  0.99899712     0.35850
H2743       H  0.67695306  0.42339693  0.57954298     0.16220
O2744       O  0.60654615  0.43090538  0.59901053    -0.60710
H2745       H  0.60132308  0.45656373  0.98125929     0.16230
O2746       O  0.66751727  0.44704561  0.96595745    -0.60800
H2747       H  0.67461888  0.47284942  0.96577323     0.43230
H2748       H  0.59478234  0.40704925  0.60158149     0.43180
C2749       C  0.60141913  0.07433613  0.98252231    -0.05880
C2750       C  0.59444154  0.10719757  0.96401872    -0.33310
C2751       C  0.60645414  0.14014692  0.97614985     0.35940
C2752       C  0.63123705  0.14043334  0.00363248    -0.06240
C2753       C  0.64273965  0.10585642  0.52048771    -0.33210
C2754       C  0.62669637  0.07318153  0.51138008     0.35850
H2755       H  0.57439378  0.10804489  0.94378759     0.16220
O2756       O  0.59156117  0.17199258  0.96326303    -0.60710
H2757       H  0.66215508  0.10519147  0.54135528     0.16230
O2758       O  0.63281621  0.04218093  0.53159753    -0.60800
H2759       H  0.65003119  0.02778623  0.51729694     0.43230
H2760       H  0.58421541  0.16823029  0.93850084     0.43180
C2761       C  0.86636602  0.47453360  0.94416472    -0.05880
C2762       C  0.86302661  0.44595908  0.92082102    -0.33310
C2763       C  0.83149663  0.44143142  0.90264047     0.35940
C2764       C  0.80291399  0.46596276  0.90733214    -0.06240
C2765       C  0.80461054  0.49156358  0.93389726    -0.33210
C2766       C  0.83618244  0.49620925  0.95211986     0.35850
H2767       H  0.88545345  0.42809022  0.91534402     0.16220
O2768       O  0.83021122  0.41545526  0.87751172    -0.60710
H2769       H  0.78307905  0.51101913  0.93745304     0.16230
O2770       O  0.83835888  0.52455032  0.97457442    -0.60800
H2771       H  0.82680548  0.51587707  0.99729927     0.43230
H2772       H  0.81936113  0.39405603  0.89011154     0.43180
C2773       C  0.62819957  0.05865569  0.84125088    -0.05880
C2774       C  0.61039170  0.02536687  0.84701377    -0.33310
C2775       C  0.57456291  0.02363345  0.85443570     0.35940
C2776       C  0.55642684  0.05513018  0.86320700    -0.06240
C2777       C  0.57410961  0.08896468  0.85997529    -0.33210
C2778       C  0.61000888  0.09063623  0.84855807     0.35850
H2779       H  0.62389487  0.99958649  0.84557824     0.16220
O2780       O  0.56285593  0.48853534  0.86281170    -0.60710
H2781       H  0.56071977  0.11351943  0.86830560     0.16230
O2782       O  0.62748778  0.12282684  0.84624292    -0.60800
H2783       H  0.64407988  0.12166069  0.86640463     0.43230
H2784       H  0.57527041  0.47666277  0.88316677     0.43180
C2785       C  0.56816083  0.02952820  0.63778547    -0.05880
C2786       C  0.56505123  0.99482877  0.65498584    -0.33310
C2787       C  0.56358899  0.98996081  0.69253832     0.35940
C2788       C  0.56635296  0.01990914  0.71424788    -0.06240
C2789       C  0.56180250  0.05453204  0.69713577    -0.33210
C2790       C  0.56490448  0.05965098  0.65967397     0.35850
H2791       H  0.56551898  0.47142213  0.63812617     0.16220
O2792       O  0.56220217  0.45682468  0.70721720    -0.60710
H2793       H  0.56178164  0.07832916  0.71302780     0.16230
O2794       O  0.56527715  0.09421103  0.64504033    -0.60800
H2795       H  0.59040464  0.10210688  0.64613017     0.43230
H2796       H  0.57374201  0.43929003  0.69105674     0.43180
C2797       C  0.90331610  0.98344560  0.61012313    -0.05880
C2798       C  0.87761336  0.44863311  0.60962977    -0.33310
C2799       C  0.84334726  0.45171955  0.62597285     0.35940
C2800       C  0.83180273  0.98938675  0.63702170    -0.06240
C2801       C  0.85405539  0.01947793  0.63367736    -0.33210
C2802       C  0.88978063  0.01625015  0.62255855     0.35850
H2803       H  0.88495441  0.42323500  0.59829547     0.16220
O2804       O  0.82263694  0.42152563  0.63127087    -0.60710
H2805       H  0.84457300  0.04567982  0.64150485     0.16230
O2806       O  0.91113500  0.04604793  0.62186515    -0.60800
H2807       H  0.90493856  0.05908257  0.64381339     0.43230
H2808       H  0.80791454  0.42063049  0.60978605     0.43180
C2809       C  0.91173765  0.17194936  0.86964706    -0.05880
C2810       C  0.89881003  0.14193614  0.85177956    -0.33310
C2811       C  0.89456118  0.10827215  0.86948310     0.35940
C2812       C  0.90224968  0.10544602  0.90561805    -0.06240
C2813       C  0.90116292  0.13787871  0.92482039    -0.33210
C2814       C  0.90935780  0.17088936  0.90687155     0.35850
H2815       H  0.89833635  0.14286572  0.82332047     0.16220
O2816       O  0.89116575  0.07782759  0.85006657    -0.60710
H2817       H  0.90352906  0.13640834  0.95348975     0.16230
O2818       O  0.91952660  0.19999802  0.92562036    -0.60800
H2819       H  0.94534535  0.19619833  0.92967818     0.43230
H2820       H  0.86510936  0.07481271  0.84770103     0.43180
C2821       C  0.52728008  0.41237866  0.88999965    -0.05880
C2822       C  0.51098796  0.41701339  0.85668658    -0.33310
C2823       C  0.01764608  0.39004662  0.83177080     0.35940
C2824       C  0.53189362  0.35702957  0.83471003    -0.06240
C2825       C  0.54903962  0.35231983  0.86789621    -0.33210
C2826       C  0.54657422  0.37908373  0.89509575     0.35850
H2827       H  0.00083088  0.44166337  0.85225206     0.16220
O2828       O  0.00127755  0.39751833  0.80019203    -0.60710
H2829       H  0.56239557  0.32677005  0.87392582     0.16230
O2830       O  0.56084072  0.37091883  0.92762609    -0.60800
H2831       H  0.54243762  0.35641114  0.94092318     0.43230
H2832       H  0.97534551  0.39646297  0.80602175     0.43180
C2833       C  0.48970557  0.37223426  0.56720842    -0.05880
C2834       C  0.95304623  0.38374602  0.61274921    -0.33310
C2835       C  0.95410145  0.39673264  0.64825509     0.35940
C2836       C  0.48383486  0.38623662  0.65021517    -0.06240
C2837       C  0.51645131  0.37802134  0.63101592    -0.33210
C2838       C  0.51999212  0.36833476  0.59419835     0.35850
H2839       H  0.92729561  0.38054797  0.60117327     0.16220
O2840       O  0.92384332  0.41268531  0.66155096    -0.60710
H2841       H  0.54088478  0.37712721  0.64570862     0.16230
O2842       O  0.55287592  0.35638168  0.58242597    -0.60800
H2843       H  0.55905582  0.37114288  0.56065560     0.43230
H2844       H  0.90343454  0.39760169  0.65502767     0.43180
C2845       C  0.95730998  0.16351476  0.63212933    -0.05880
C2846       C  0.47959588  0.15736760  0.60347662    -0.33310
C2847       C  0.49621958  0.12429068  0.60047363     0.35940
C2848       C  0.98668003  0.09519549  0.62254828    -0.06240
C2849       C  0.96243888  0.10004110  0.65043468    -0.33210
C2850       C  0.94560432  0.13339301  0.65363206     0.35850
H2851       H  0.48905987  0.17985152  0.58657238     0.16220
O2852       O  0.52294072  0.12094022  0.57510350    -0.60710
H2853       H  0.95437954  0.07730452  0.66769222     0.16230
O2854       O  0.91914625  0.13688812  0.67916543    -0.60800
H2855       H  0.89656376  0.13367560  0.66654521     0.43230
H2856       H  0.51286169  0.12927405  0.55203441     0.43180
O2857       O  0.52894466  0.57012633  0.41504528    -0.88590
C2858       C  0.98187183  0.56015388  0.10871831     1.11450
O2859       O  0.48583906  0.52245069  0.46296926    -1.36400
O2860       O  0.55638586  0.56095563  0.08060003    -0.90080
O2861       O  0.50512634  0.02456565  0.38520361    -0.90740
O2862       O  0.54030997  0.95375619  0.44030148    -0.79570
O2863       O  0.54327914  0.56611944  0.49279539    -1.01650
C2864       C  0.55609486  0.94277020  0.03699820     1.21490
O2865       O  0.97579251  0.96321582  0.00078783    -1.36550
Mn2866     Mn  0.95205372  0.50905217  0.01087807     1.82060
O2867       O  0.54654350  0.94303652  0.00622118    -0.78640
O2868       O  0.56361408  0.50341920  0.08222060    -0.88040
C2869       C  0.93161094  0.48477564  0.08455534     1.12580
C2870       C  0.56629858  0.53227614  0.09768637     1.07300
O2871       O  0.90522035  0.50204980  0.48218143    -0.79580
O2872       O  0.50339002  0.51398375  0.03388118    -1.33270
O2873       O  0.92865829  0.97057760  0.44408075    -0.98790
C2874       C  0.98814939  0.86671887  0.03928944     1.06010
Mn2875     Mn  0.51204762  0.48762734  0.08534700     1.48570
O2876       O  0.98360573  0.88036337  0.49159845    -0.87990
Mn2877     Mn  0.96458152  0.99891517  0.41656675     1.49560
O2878       O  0.95349249  0.59084010  0.43346514    -0.91870
C2879       C  0.57104143  0.55072470  0.48480985     1.19210
C2880       C  0.92937343  0.57720468  0.41553248     1.11270
Mn2881     Mn  0.52175521  0.98511033  0.48672890     1.80970
O2882       O  0.96111060  0.96246047  0.08358686    -0.97020
Mn2883     Mn  0.50251234  0.57699128  0.46148868     1.49260
C2884       C  0.52717039  0.55076600  0.38827258     1.07780
Mn2885     Mn  0.97699750  0.93152134  0.04373862     1.49930
C2886       C  0.90060011  0.91228383  0.01902069     1.10690
O2887       O  0.98833414  0.94871982  0.42591325    -1.02820
O2888       O  0.49655764  0.53111935  0.11899712    -0.92480
C2889       C  0.51846016  0.94016365  0.41955274     1.21970
O2890       O  0.53128341  0.94370926  0.06114031    -1.03210
O2891       O  0.47529100  0.56117243  0.07464956    -0.90610
O2892       O  0.92170986  0.91735588  0.04381112    -0.90210
O2893       O  0.93006297  0.54410874  0.40576525    -0.90240
Mn2894     Mn  0.51562045  0.56802193  0.03915487     1.47860
O2895       O  0.92277652  0.49825764  0.05521898    -0.78710
C2896       C  0.90166887  0.98359815  0.45776092     1.15020
O2897       O  0.57060565  0.51721143  0.47778550    -0.77440
O2898       O  0.92735632  0.56251289  0.51537608    -0.77060
Mn2899     Mn  0.95549343  0.92776327  0.46429625     1.51060
O2900       O  0.98516521  0.88540704  0.06247052    -0.89410
O2901       O  0.48115840  0.58734586  0.50671245    -0.96940
O2902       O  0.91330320  0.91374661  0.49263764    -0.91950
C2903       C  0.94498595  0.59101315  0.51344413     1.12810
O2904       O  0.53173024  0.69967386  0.32445593    -0.88590
C2905       C  0.95529529  0.69961070  0.14705115     1.11450
O2906       O  0.98138706  0.74193366  0.28354579    -1.36400
O2907       O  0.53210523  0.68235938  0.16527068    -0.90080
O2908       O  0.51868966  0.75332452  0.34944942    -0.90740
O2909       O  0.54546765  0.80412950  0.29254058    -0.79570
O2910       O  0.52903029  0.68257110  0.24792267    -1.01650
C2911       C  0.55413495  0.80962503  0.19494382     1.21490
O2912       O  0.97661272  0.80346505  0.24019774    -1.36550
Mn2913     Mn  0.94725119  0.75694165  0.24167370     1.82060
O2914       O  0.56059353  0.78424452  0.21597299    -0.78640
O2915       O  0.55040500  0.73871095  0.15994041    -0.88040
C2916       C  0.92357439  0.78305990  0.17013063     1.12580
C2917       C  0.55248321  0.70673554  0.15050534     1.07300
O2918       O  0.90297605  0.77137561  0.27282271    -0.79580
O2919       O  0.49365393  0.74007794  0.21157513    -1.33270
O2920       O  0.93413512  0.79983714  0.30846170    -0.98790
C2921       C  0.48502055  0.88567295  0.19181525     1.06010
Mn2922     Mn  0.50224561  0.76334122  0.15915363     1.48570
O2923       O  0.96667450  0.88919691  0.23738054    -0.87990
Mn2924     Mn  0.97223362  0.77198855  0.33003183     1.49560
O2925       O  0.95544549  0.67908927  0.32643571    -0.91870
C2926       C  0.55962632  0.69497001  0.24686376     1.19210
C2927       C  0.93678583  0.69550092  0.34911240     1.11270
Mn2928     Mn  0.52200692  0.76805474  0.25058855     1.80970
O2929       O  0.95429464  0.79388178  0.16217061    -0.97020
Mn2930     Mn  0.49300999  0.68778618  0.28834634     1.49260
C2931       C  0.53855572  0.72513965  0.34518755     1.07780
Mn2932     Mn  0.97921255  0.82977631  0.18997186     1.49930
C2933       C  0.90423175  0.85811996  0.22394863     1.10690
O2934       O  0.99353318  0.81808290  0.30869716    -1.02820
O2935       O  0.47776772  0.72077254  0.13396619    -0.92480
C2936       C  0.52409878  0.82671901  0.30818500     1.21970
O2937       O  0.52713477  0.80786018  0.17536438    -1.03210
O2938       O  0.45022428  0.69609686  0.17992508    -0.90610
O2939       O  0.92726543  0.85364883  0.19919353    -0.90210
O2940       O  0.94016444  0.72934774  0.35473733    -0.90240
Mn2941     Mn  0.49311861  0.68386923  0.21070602     1.47860
O2942       O  0.91664146  0.77027789  0.20060644    -0.78710
C2943       C  0.90584490  0.78599497  0.30201233     1.15020
O2944       O  0.56348774  0.72753877  0.25637284    -0.77440
O2945       O  0.91660851  0.71239630  0.24384777    -0.77060
Mn2946     Mn  0.95564242  0.84003536  0.27710306     1.51060
O2947       O  0.00963933  0.86355484  0.21659549    -0.89410
O2948       O  0.95759726  0.67288263  0.25076366    -0.96940
O2949       O  0.90807235  0.84589638  0.25490580    -0.91950
C2950       C  0.92491124  0.68045301  0.25057381     1.12810
O2951       O  0.78861276  0.55718220  0.34822123    -0.88590
C2952       C  0.79886221  0.49196037  0.16098771     1.11450
O2953       O  0.74283730  0.51149176  0.30372321    -1.36400
O2954       O  0.80591043  0.56616180  0.18669405    -0.90080
O2955       O  0.72965635  0.55944342  0.36068414    -0.90740
O2956       O  0.68431363  0.57961498  0.30942536    -0.79570
O2957       O  0.80325038  0.55432497  0.27021866    -1.01650
C2958       C  0.67610012  0.58611668  0.21773484     1.21490
O2959       O  0.68395843  0.50722082  0.26081823    -1.36550
Mn2960     Mn  0.72954634  0.47608482  0.26430515     1.82060
O2961       O  0.70026427  0.59287188  0.23837965    -0.78640
O2962       O  0.74962465  0.58252152  0.17938245    -0.88040
C2963       C  0.71173371  0.95535641  0.19195431     1.12580
C2964       C  0.78183021  0.58449824  0.16988465     1.07300
O2965       O  0.71098908  0.93215865  0.29917219    -0.79580
O2966       O  0.74876564  0.52223600  0.23203094    -1.33270
O2967       O  0.68341086  0.96580155  0.33409571    -0.98790
C2968       C  0.59580006  0.51799431  0.24165782     1.06010
Mn2969     Mn  0.72627207  0.53317137  0.18112693     1.48570
O2970       O  0.59823899  0.49886466  0.27051152    -0.87990
Mn2971     Mn  0.71049419  0.50772547  0.34861496     1.49560
O2972       O  0.79580022  0.47416898  0.34563787    -0.91870
C2973       C  0.79664574  0.58637712  0.27149523     1.19210
C2974       C  0.78078387  0.47296335  0.37621032     1.11270
Mn2975     Mn  0.72109622  0.55316946  0.27101599     1.80970
O2976       O  0.70113015  0.48639893  0.18450925    -0.97020
Mn2977     Mn  0.79782764  0.51750124  0.30921080     1.49260
C2978       C  0.76053710  0.57376964  0.35945502     1.07780
Mn2979     Mn  0.66093650  0.50823020  0.21015200     1.49930
C2980       C  0.63409422  0.93135506  0.24264946     1.10690
O2981       O  0.67344794  0.52573830  0.31831291    -1.02820
O2982       O  0.77127427  0.51034856  0.15241050    -0.92480
C2983       C  0.66347490  0.55569451  0.32286418     1.21970
O2984       O  0.67985297  0.55748183  0.19974568    -1.03210
O2985       O  0.80487277  0.48394840  0.19278362    -0.90610
O2986       O  0.63916316  0.95591840  0.21809769    -0.90210
O2987       O  0.74707775  0.98657609  0.38319643    -0.90240
Mn2988     Mn  0.80473960  0.52376503  0.22926843     1.47860
O2989       O  0.71906891  0.94582344  0.22327496    -0.78710
C2990       C  0.69517460  0.93559571  0.32899323     1.15020
O2991       O  0.76352528  0.59471988  0.27620500    -0.77440
O2992       O  0.77018273  0.94522005  0.27001078    -0.77060
Mn2993     Mn  0.64703124  0.98597704  0.29926194     1.51060
O2994       O  0.62223701  0.53469946  0.23183051    -0.89410
O2995       O  0.80987383  0.48655117  0.26818775    -0.96940
O2996       O  0.63831207  0.93680039  0.27561707    -0.91950
C2997       C  0.80345626  0.45429240  0.26492985     1.12810
O2998       O  0.83337938  0.72131238  0.44624929    -0.88590
C2999       C  0.65114054  0.67468048  0.51039402     1.11450
O3000       O  0.78374681  0.75273459  0.50385261    -1.36400
O3001       O  0.68118924  0.68674618  0.44172389    -0.90080
O3002       O  0.84031934  0.77940792  0.45770457    -0.90740
O3003       O  0.78559542  0.82349035  0.44479755    -0.79570
O3004       O  0.75973700  0.70127602  0.45487071    -1.01650
C3005       C  0.68783002  0.81985309  0.43943359     1.21490
O3006       O  0.73194674  0.80638408  0.01536361    -1.36550
Mn3007     Mn  0.73951119  0.75544735  0.04010753     1.82060
O3008       O  0.71738091  0.80552779  0.43369809    -0.78640
O3009       O  0.67556360  0.74520696  0.43375960    -0.88040
C3010       C  0.66222723  0.75799775  0.06008895     1.12580
C3011       C  0.66665963  0.71439200  0.42608246     1.07300
O3012       O  0.77060791  0.76814870  0.08573254    -0.79580
O3013       O  0.71372815  0.74161299  0.49364374    -1.33270
O3014       O  0.80183147  0.80299390  0.05293404    -0.98790
C3015       C  0.70251522  0.89734407  0.51698151     1.06010
Mn3016     Mn  0.66142525  0.75880254  0.48391975     1.48570
O3017       O  0.73190776  0.89204100  0.53329761    -0.87990
Mn3018     Mn  0.82507915  0.78767976  0.00949878     1.49560
O3019       O  0.83717994  0.69422600  0.52286249    -0.91870
C3020       C  0.76148942  0.71205789  0.42446207     1.19210
C3021       C  0.86312651  0.71223168  0.03080323     1.11270
Mn3022     Mn  0.74999140  0.77945354  0.46703316     1.80970
O3023       O  0.65652494  0.77612604  0.03225889    -0.97020
Mn3024     Mn  0.79822163  0.70060558  0.48677417     1.49260
C3025       C  0.84122930  0.75366423  0.43636223     1.07780
Mn3026     Mn  0.67778069  0.82472995  0.01712011     1.49930
C3027       C  0.70776007  0.84476010  0.09431616     1.10690
O3028       O  0.79181781  0.82869544  0.49785587    -1.02820
O3029       O  0.64027167  0.70543627  0.49761363    -0.92480
C3030       C  0.79687555  0.84258853  0.46940689     1.21970
O3031       O  0.67093336  0.81075873  0.46781606    -1.03210
O3032       O  0.68244414  0.67089773  0.52114026    -0.90610
O3033       O  0.68261482  0.84181469  0.07170840    -0.90210
O3034       O  0.86268633  0.74697487  0.02886219    -0.90240
Mn3035     Mn  0.72088632  0.68563139  0.48404320     1.47860
O3036       O  0.69342961  0.75622512  0.07206153    -0.78710
C3037       C  0.79928443  0.78548328  0.08050442     1.15020
O3038       O  0.76172916  0.74642399  0.41970309    -0.77440
O3039       O  0.74664057  0.70591462  0.06404633    -0.77060
Mn3040     Mn  0.76644309  0.84187478  0.03922497     1.51060
O3041       O  0.69390865  0.87336245  0.99509569    -0.89410
O3042       O  0.76153844  0.67788032  0.51873847    -0.96940
O3043       O  0.74024310  0.83881042  0.08674508    -0.91950
C3044       C  0.76102674  0.67915483  0.05035633     1.12810
C3045       C  0.78854159  0.60411270  0.13510364    -0.05880
C3046       C  0.80228993  0.63910430  0.13414095    -0.33310
C3047       C  0.79594121  0.66288529  0.10485215     0.35940
C3048       C  0.77666030  0.65158212  0.07530082    -0.06240
C3049       C  0.76617840  0.61559348  0.07465692    -0.33210
C3050       C  0.77140080  0.59214027  0.10432102     0.35850
H3051       H  0.81488546  0.64919865  0.15740002     0.16220
O3052       O  0.80742415  0.69787422  0.10598012    -0.60710
H3053       H  0.75067847  0.60656445  0.05275935     0.16230
O3054       O  0.75579275  0.55882076  0.10439064    -0.60800
H3055       H  0.77121727  0.54419759  0.08842802     0.43230
H3056       H  0.78971604  0.70985786  0.12173684     0.43180
C3057       C  0.70945138  0.92570977  0.16735117    -0.05880
C3058       C  0.73482706  0.89768499  0.17010286    -0.33310
C3059       C  0.73129278  0.86619827  0.15118878     0.35940
C3060       C  0.70190011  0.86237826  0.12882627    -0.06240
C3061       C  0.67358890  0.88686040  0.13209781    -0.33210
C3062       C  0.67844906  0.92016806  0.14837388     0.35850
H3063       H  0.75781846  0.90043136  0.18665127     0.16220
O3064       O  0.75734842  0.83985989  0.15351607    -0.60710
H3065       H  0.64938534  0.88207060  0.11820880     0.16230
O3066       O  0.65172081  0.94573458  0.14794738    -0.60800
H3067       H  0.66004315  0.96507801  0.13078698     0.43230
H3068       H  0.77933151  0.85096553  0.14288623     0.43180
C3069       C  0.67709938  0.84588916  0.40887411    -0.05880
C3070       C  0.69375423  0.84031426  0.37505858    -0.33310
C3071       C  0.69893890  0.86845073  0.34905242     0.35940
C3072       C  0.68663617  0.90391397  0.35516921    -0.06240
C3073       C  0.66609758  0.90871720  0.38711134    -0.33210
C3074       C  0.66072339  0.87991408  0.41334909     0.35850
H3075       H  0.70567764  0.81414959  0.36963057     0.16220
O3076       O  0.71750718  0.86097389  0.31822680    -0.60710
H3077       H  0.65476000  0.93517994  0.39222893     0.16230
O3078       O  0.64101332  0.88546884  0.44393732    -0.60800
H3079       H  0.61994971  0.90020748  0.43690263     0.43230
H3080       H  0.74299118  0.86237726  0.32437673     0.43180
C3081       C  0.76401478  0.61154722  0.37165060    -0.05880
C3082       C  0.74132806  0.63982383  0.35905191    -0.33310
C3083       C  0.74359297  0.67535999  0.37183176     0.35940
C3084       C  0.76775378  0.68274296  0.39855537    -0.06240
C3085       C  0.79118569  0.65441076  0.40972158    -0.33210
C3086       C  0.79002804  0.61975153  0.39607056     0.35850
H3087       H  0.72150832  0.63424921  0.33959006     0.16220
O3088       O  0.72031199  0.70171532  0.36011118    -0.60710
H3089       H  0.80948621  0.65861343  0.43098115     0.16230
O3090       O  0.81296068  0.59338670  0.40870360    -0.60800
H3091       H  0.80076645  0.58249515  0.43019349     0.43230
H3092       H  0.73303097  0.71446387  0.33994471     0.43180
C3093       C  0.89304235  0.65498492  0.25629503    -0.05880
C3094       C  0.85824102  0.67050302  0.26133468    -0.33310
C3095       C  0.82699822  0.64948233  0.26717428     0.35940
C3096       C  0.82895435  0.61147779  0.26755118    -0.06240
C3097       C  0.86372394  0.59589114  0.26247210    -0.33210
C3098       C  0.89508228  0.61691868  0.25714018     0.35850
H3099       H  0.85490969  0.69967157  0.26096103     0.16220
O3100       O  0.79471540  0.66663189  0.27181540    -0.60710
H3101       H  0.86691167  0.56670739  0.26246587     0.16230
O3102       O  0.92735795  0.59979358  0.25239567    -0.60800
H3103       H  0.93675123  0.59605104  0.27669955     0.43230
H3104       H  0.79246710  0.67060431  0.29775166     0.43180
C3105       C  0.82687068  0.93049744  0.25299373    -0.05880
C3106       C  0.86011403  0.94378533  0.24312212    -0.33310
C3107       C  0.88528437  0.92132254  0.22815455     0.35940
C3108       C  0.87646038  0.88506179  0.22081349    -0.06240
C3109       C  0.84195705  0.87273791  0.22755645    -0.33210
C3110       C  0.81732338  0.89477554  0.24460525     0.35850
H3111       H  0.86735159  0.97145184  0.24824670     0.16220
O3112       O  0.91903659  0.93476223  0.22319381    -0.60710
H3113       H  0.83541293  0.84465076  0.22351474     0.16230
O3114       O  0.78450082  0.88069871  0.25379270    -0.60800
H3115       H  0.78801070  0.86700868  0.27664589     0.43230
H3116       H  0.92668913  0.94258455  0.24682075     0.43180
C3117       C  0.59076717  0.66947982  0.23825224    -0.05880
C3118       C  0.58970056  0.63482624  0.25353859    -0.33310
C3119       C  0.61680968  0.60886249  0.24741473     0.35940
C3120       C  0.64365360  0.61303138  0.21989623    -0.06240
C3121       C  0.64589897  0.64928852  0.20569041    -0.33170
C3122       C  0.62066508  0.67733512  0.21539271     0.35850
H3123       H  0.56908056  0.62875156  0.27359730     0.16220
O3124       O  0.61996454  0.58225045  0.27293689    -0.60710
H3125       H  0.66832003  0.65649255  0.18820173     0.16230
O3126       O  0.62546777  0.71201965  0.20202486    -0.60800
H3127       H  0.64003629  0.72395016  0.21977910     0.43230
H3128       H  0.59552042  0.57412543  0.27996373     0.43180
C3129       C  0.57530934  0.84246744  0.20338382    -0.05880
C3130       C  0.56633710  0.85894494  0.23582080    -0.33310
C3131       C  0.58583498  0.88671795  0.24935792     0.35940
C3132       C  0.61789640  0.89677003  0.23280916    -0.06240
C3133       C  0.63134308  0.87539869  0.20519235    -0.33210
C3134       C  0.60999283  0.84892375  0.18969360     0.35850
H3135       H  0.54198956  0.85206455  0.24958477     0.16220
O3136       O  0.57221929  0.90525579  0.27767574    -0.60710
H3137       H  0.65897921  0.87769810  0.19778909     0.16230
O3138       O  0.62376689  0.82834918  0.16287533    -0.60800
H3139       H  0.63718018  0.80840725  0.17502493     0.43230
H3140       H  0.58542939  0.89567336  0.29857508     0.43180
C3141       C  0.89209792  0.78639607  0.14673024    -0.05880
C3142       C  0.85782938  0.77825528  0.16189337    -0.33310
C3143       C  0.82722925  0.77746314  0.14123961     0.35940
C3144       C  0.83005170  0.78611962  0.10475982    -0.06240
C3145       C  0.86384880  0.79629184  0.09007384    -0.33210
C3146       C  0.89467759  0.79562022  0.11035688     0.35850
H3147       H  0.85445574  0.77190002  0.19014961     0.16220
O3148       O  0.79458494  0.77011671  0.15717655    -0.60710
H3149       H  0.86672387  0.80394829  0.06218711     0.16230
O3150       O  0.92699642  0.80353005  0.09418438    -0.60800
H3151       H  0.93590683  0.78025747  0.08480824     0.43230
H3152       H  0.79736461  0.74673106  0.17071942     0.43180
C3153       C  0.63295193  0.73696519  0.07903641    -0.05880
C3154       C  0.59737533  0.74193800  0.06906667    -0.33310
C3155       C  0.56941733  0.72494589  0.08871622     0.35940
C3156       C  0.57649641  0.70215720  0.11890151    -0.06240
C3157       C  0.61198732  0.69230346  0.12463761    -0.33210
C3158       C  0.64013418  0.71021793  0.10605440     0.35850
H3159       H  0.59089664  0.76070056  0.04729468     0.16220
O3160       O  0.53489225  0.73377227  0.08052549    -0.60710
H3161       H  0.61796940  0.67301794  0.14576795     0.16230
O3162       O  0.67448450  0.70175729  0.11516715    -0.60800
H3163       H  0.67904524  0.71620759  0.13630228     0.43230
H3164       H  0.53075975  0.75850903  0.08936252     0.43180
C3165       C  0.63345578  0.71368349  0.40624312    -0.05880
C3166       C  0.63178731  0.69697460  0.37373692    -0.33310
C3167       C  0.60121878  0.70092768  0.35313056     0.35940
C3168       C  0.57165460  0.72155232  0.36542347    -0.06240
C3169       C  0.57412743  0.73962856  0.39718122    -0.33210
C3170       C  0.60467625  0.73630841  0.41727145     0.35850
H3171       H  0.65484977  0.68262943  0.36345197     0.16220
O3172       O  0.60112029  0.68591338  0.32031693    -0.60710
H3173       H  0.55228088  0.75645507  0.40667791     0.16230
O3174       O  0.60645509  0.75587545  0.44758025    -0.60800
H3175       H  0.58825625  0.74541767  0.46449581     0.43230
H3176       H  0.61623844  0.70198638  0.30466222     0.43180
C3177       C  0.87850336  0.78173117  0.33009272    -0.05880
C3178       C  0.86506532  0.74703644  0.33737891    -0.33310
C3179       C  0.85160274  0.73732514  0.37148762     0.35940
C3180       C  0.85077427  0.76302110  0.39836808    -0.06240
C3181       C  0.85739906  0.79948361  0.38804888    -0.33210
C3182       C  0.87281218  0.80867043  0.35486783     0.35850
H3183       H  0.86887689  0.72614558  0.31808798     0.16220
O3184       O  0.84166293  0.70225871  0.37883480    -0.60710
H3185       H  0.85149994  0.82109510  0.40571969     0.16230
O3186       O  0.88313046  0.84371747  0.34719593    -0.60800
H3187       H  0.90557832  0.84674629  0.36011164     0.43230
H3188       H  0.82843993  0.69436665  0.35795878     0.43180
C3189       C  0.82583879  0.86941856  0.46936083    -0.05880
C3190       C  0.81624834  0.90192994  0.48626016    -0.33310
C3191       C  0.83748538  0.91582379  0.51328090     0.35940
C3192       C  0.86605644  0.89490469  0.02323386    -0.06240
C3193       C  0.87074079  0.85973281  0.01151502    -0.33210
C3194       C  0.85844849  0.85366333  0.48049161     0.35850
H3195       H  0.79153954  0.91569302  0.47954740     0.16220
O3196       O  0.83090124  0.95001933  0.52499296    -0.60710
H3197       H  0.89431724  0.84460013  0.01979030     0.16230
O3198       O  0.87942197  0.83358955  0.45827488    -0.60800
H3199       H  0.89561395  0.85285087  0.94263547     0.43230
H3200       H  0.81181345  0.94707179  0.54359307     0.43180
C3201       C  0.93004957  0.62389438  0.02806388    -0.05880
C3202       C  0.94262928  0.65957691  0.51118008    -0.33310
C3203       C  0.92496827  0.69237497  0.51910647     0.35940
C3204       C  0.89387127  0.68984311  0.04322681    -0.06240
C3205       C  0.88426366  0.65710295  0.06086519    -0.33210
C3206       C  0.90007139  0.62405832  0.05148693     0.35850
H3207       H  0.96455653  0.65998301  0.49182586     0.16220
O3208       O  0.93600240  0.72409028  0.50228568    -0.60710
H3209       H  0.85992122  0.65626851  0.07672898     0.16230
O3210       O  0.88401145  0.59191405  0.06209070    -0.60800
H3211       H  0.86948459  0.59604014  0.08404928     0.43230
H3212       H  0.91805275  0.73009104  0.48406162     0.43180
C3213       C  0.67351978  0.92489234  0.02490895    -0.05880
C3214       C  0.65769443  0.92630586  0.05918515    -0.33310
C3215       C  0.61998688  0.93253169  0.06568071     0.35940
C3216       C  0.59759075  0.94087851  0.03707305    -0.06240
C3217       C  0.61612588  0.94719062  0.00344890    -0.33210
C3218       C  0.65264309  0.94025962  0.49861283     0.35850
H3219       H  0.67601524  0.92317380  0.07992325     0.16220
O3220       O  0.60563091  0.93067902  0.09950695    -0.60710
H3221       H  0.60174076  0.95632822  0.48089550     0.16230
O3222       O  0.66795427  0.94699358  0.46553321    -0.60800
H3223       H  0.67491694  0.97284207  0.46522296     0.43230
H3224       H  0.59377871  0.90685923  0.10196924     0.43180
C3225       C  0.60190461  0.57488607  0.48193742    -0.05880
C3226       C  0.59461088  0.60788350  0.46377611    -0.33310
C3227       C  0.60633906  0.64079432  0.47627362     0.35940
C3228       C  0.63123973  0.64095035  0.50365643    -0.06240
C3229       C  0.64131491  0.60650339  0.02118057    -0.33210
C3230       C  0.62563377  0.57364434  0.01207437     0.35850
H3231       H  0.57447261  0.60877565  0.44363555     0.16220
O3232       O  0.59106540  0.67267396  0.46390372    -0.60710
H3233       H  0.66042303  0.60611150  0.04232554     0.16230
O3234       O  0.63169081  0.54282587  0.03258652    -0.60800
H3235       H  0.64903554  0.52834341  0.01852526     0.43230
H3236       H  0.58324906  0.66911257  0.43926136     0.43180
C3237       C  0.86627894  0.97620746  0.44347927    -0.05880
C3238       C  0.86256382  0.94713664  0.42077395    -0.33310
C3239       C  0.83090120  0.94244763  0.40288976     0.35940
C3240       C  0.80252535  0.96726042  0.40727833    -0.06240
C3241       C  0.80462846  0.99353357  0.43316445    -0.33210
C3242       C  0.83637509  0.99839031  0.45103010     0.35850
H3243       H  0.88479650  0.92893657  0.41557027     0.16220
O3244       O  0.82926895  0.91594277  0.37832519    -0.60710
H3245       H  0.78326997  0.01324378  0.43639702     0.16230
O3246       O  0.83898891  0.02730014  0.47271884    -0.60800
H3247       H  0.82764774  0.01925816  0.49575681     0.43230
H3248       H  0.81801214  0.89499134  0.39131336     0.43180
C3249       C  0.62880978  0.55825409  0.34190932    -0.05880
C3250       C  0.61055450  0.52518474  0.34719367    -0.33310
C3251       C  0.57460163  0.52389481  0.35399904     0.35940
C3252       C  0.55682027  0.55548409  0.36312313    -0.06240
C3253       C  0.57495300  0.58909783  0.36042987    -0.33210
C3254       C  0.61096337  0.59040651  0.34936853     0.35850
H3255       H  0.62376659  0.49926021  0.34569821     0.16220
O3256       O  0.56138724  0.98944649  0.36068240    -0.60710
H3257       H  0.56180346  0.61372972  0.36889716     0.16230
O3258       O  0.62878510  0.62241784  0.34729516    -0.60800
H3259       H  0.64523753  0.62100760  0.36756975     0.43230
H3260       H  0.57342915  0.97717174  0.38105223     0.43180
C3261       C  0.56771954  0.52953725  0.13803977    -0.05880
C3262       C  0.56504002  0.49482779  0.15529819    -0.33310
C3263       C  0.56434788  0.48992014  0.19287081     0.35940
C3264       C  0.56729378  0.51987653  0.21455270    -0.06240
C3265       C  0.56283261  0.55453142  0.19747437    -0.33210
C3266       C  0.56486554  0.55964219  0.15996805     0.35850
H3267       H  0.56418397  0.97146035  0.13859257     0.16220
O3268       O  0.56107148  0.95690513  0.20765268    -0.60710
H3269       H  0.56313833  0.57833608  0.21333006     0.16230
O3270       O  0.56462203  0.59419558  0.14531256    -0.60800
H3271       H  0.58972844  0.60229876  0.14574333     0.43230
H3272       H  0.57284698  0.93947186  0.19154398     0.43180
C3273       C  0.90162939  0.48329793  0.11110928    -0.05880
C3274       C  0.87711351  0.94798901  0.10933399    -0.33310
C3275       C  0.84287000  0.95130552  0.12570626     0.35940
C3276       C  0.82965434  0.48837072  0.13648997    -0.06240
C3277       C  0.85044794  0.51922811  0.13073112    -0.33210
C3278       C  0.88646290  0.51672032  0.12035832     0.35850
H3279       H  0.88413891  0.92267921  0.09762874     0.16220
O3280       O  0.82177629  0.92134139  0.13059854    -0.60710
H3281       H  0.83943675  0.54559882  0.13603679     0.16230
O3282       O  0.90623017  0.54761482  0.11615393    -0.60800
H3283       H  0.89741971  0.56441544  0.13446936     0.43230
H3284       H  0.80698878  0.92098694  0.10912239     0.43180
C3285       C  0.91134277  0.67127114  0.36896815    -0.05880
C3286       C  0.89860156  0.64138130  0.35076444    -0.33310
C3287       C  0.89448965  0.60750680  0.36809352     0.35940
C3288       C  0.90207074  0.60432098  0.40422057    -0.06240
C3289       C  0.90073441  0.63654828  0.42376654    -0.33210
C3290       C  0.90884858  0.66979003  0.40619258     0.35850
H3291       H  0.89829136  0.64255941  0.32231614     0.16220
O3292       O  0.89137226  0.57726455  0.34833344    -0.60710
H3293       H  0.90303210  0.63477546  0.45243777     0.16230
O3294       O  0.91882550  0.69871908  0.42530558    -0.60800
H3295       H  0.94468505  0.69508663  0.42924274     0.43230
H3296       H  0.86534414  0.57398755  0.34602123     0.43180
C3297       C  0.52712497  0.91285789  0.38965967    -0.05880
C3298       C  0.51039102  0.91745443  0.35656303    -0.33310
C3299       C  0.01716892  0.88965770  0.33051371     0.35940
C3300       C  0.53144321  0.85767705  0.33414913    -0.06240
C3301       C  0.54899635  0.85299997  0.36711742    -0.33210
C3302       C  0.54666057  0.87966188  0.39442535     0.35850
H3303       H  0.00038962  0.94151765  0.35046523     0.16220
O3304       O  0.00112041  0.89690942  0.29873951    -0.60710
H3305       H  0.56259873  0.82753394  0.37291135     0.16230
O3306       O  0.56129333  0.87145603  0.42677083    -0.60800
H3307       H  0.54289895  0.85721371  0.44037161     0.43230
H3308       H  0.97514668  0.89655690  0.30446810     0.43180
C3309       C  0.48929237  0.87169756  0.06592401    -0.05880
C3310       C  0.95208034  0.88316691  0.11250174    -0.33310
C3311       C  0.95295307  0.89621095  0.14797363     0.35940
C3312       C  0.48299638  0.88581463  0.14865257    -0.06240
C3313       C  0.51577293  0.87776243  0.12965247    -0.33210
C3314       C  0.51951960  0.86791955  0.09293333     0.35850
H3315       H  0.92637904  0.87978215  0.10086363     0.16220
O3316       O  0.92248519  0.91183371  0.16117239    -0.60710
H3317       H  0.54016516  0.87716576  0.14441822     0.16230
O3318       O  0.55252002  0.85618241  0.08125787    -0.60800
H3319       H  0.55862789  0.87087198  0.05942493     0.43230
H3320       H  0.90225456  0.89649259  0.15466043     0.43180
C3321       C  0.95329412  0.66477709  0.13095353    -0.05880
C3322       C  0.47786480  0.65736368  0.10285708    -0.33310
C3323       C  0.49444900  0.62421503  0.10026317     0.35940
C3324       C  0.98127965  0.59511835  0.12454186    -0.06240
C3325       C  0.95471381  0.60128204  0.15010437    -0.33210
C3326       C  0.93883095  0.63537333  0.15163828     0.35850
H3327       H  0.48775563  0.67976874  0.08610198     0.16220
O3328       O  0.52163200  0.62074447  0.07540884    -0.60710
H3329       H  0.94434434  0.57907602  0.16679948     0.16230
O3330       O  0.91101098  0.64049069  0.17538376    -0.60800
H3331       H  0.88919649  0.63805289  0.16134460     0.43230
H3332       H  0.51199329  0.62898925  0.05211414     0.43180
O3333       O  0.52963897  0.56843974  0.91585883    -0.88590
C3334       C  0.98216182  0.55853821  0.60399328     1.11450
O3335       O  0.48512403  0.52144850  0.96291070    -1.36400
O3336       O  0.55949364  0.56130361  0.57871653    -0.90080
O3337       O  0.50447589  0.02476366  0.88503620    -0.90740
O3338       O  0.54019083  0.95431499  0.93969961    -0.79570
O3339       O  0.54249785  0.56509825  0.99402215    -1.01650
C3340       C  0.55589914  0.94267075  0.53771245     1.21490
O3341       O  0.97479159  0.95884258  0.50327321    -1.36550
Mn3342     Mn  0.95213963  0.51177306  0.50791995     1.82060
O3343       O  0.54631939  0.94246016  0.50696407    -0.78640
O3344       O  0.56625395  0.50365309  0.58052535    -0.88040
C3345       C  0.93190702  0.48006770  0.58139033     1.12580
C3346       C  0.56925830  0.53257059  0.59585388     1.07300
O3347       O  0.90438705  0.50086478  0.98553885    -0.79580
O3348       O  0.50528782  0.51465379  0.53352601    -1.33270
O3349       O  0.93008148  0.96950592  0.94315947    -0.98790
C3350       C  0.99292903  0.86511410  0.52259040     1.06010
Mn3351     Mn  0.51470749  0.48777931  0.58464253     1.48570
O3352       O  0.98082891  0.88159537  0.00643461    -0.87990
Mn3353     Mn  0.96513437  0.99922514  0.91672100     1.49560
O3354       O  0.95806261  0.59149323  0.93699668    -0.91870
C3355       C  0.57029128  0.54943646  0.98668591     1.19210
C3356       C  0.93304650  0.57929334  0.91922266     1.11270
Mn3357     Mn  0.52170244  0.98560450  0.98628553     1.80970
O3358       O  0.96304034  0.97129558  0.58606954    -0.97020
Mn3359     Mn  0.50240713  0.57581850  0.96168389     1.49260
C3360       C  0.52791303  0.54921565  0.88899116     1.07780
Mn3361     Mn  0.97678205  0.93276023  0.55552308     1.49930
C3362       C  0.90181555  0.91281403  0.52401382     1.10690
O3363       O  0.98966308  0.95003105  0.92806767    -1.02820
O3364       O  0.49993342  0.53082106  0.61874011    -0.92480
C3365       C  0.51821921  0.94038820  0.91930003     1.21970
O3366       O  0.53106750  0.94365721  0.56178237    -1.03210
O3367       O  0.47821893  0.56142987  0.57498709    -0.90610
O3368       O  0.92085495  0.92047351  0.55032006    -0.90210
O3369       O  0.93147904  0.54607523  0.91017468    -0.90240
Mn3370     Mn  0.51755962  0.56874038  0.53856111     1.47860
O3371       O  0.92451024  0.49837493  0.55370313    -0.78710
C3372       C  0.90274094  0.98285573  0.95629782     1.15020
O3373       O  0.56964766  0.51601432  0.97935345    -0.77440
O3374       O  0.92833611  0.56033008  0.01701707    -0.77060
Mn3375     Mn  0.95740508  0.92769434  0.96657351     1.51060
O3376       O  0.99014177  0.88268516  0.54633103    -0.89410
O3377       O  0.48013846  0.58631683  0.00631003    -0.96940
O3378       O  0.91080790  0.91518165  0.98761426    -0.91950
C3379       C  0.94597438  0.58876676  0.01633654     1.12810
O3380       O  0.53177195  0.69988650  0.82429459    -0.88590
C3381       C  0.95772892  0.69700899  0.64849158     1.11450
O3382       O  0.98323924  0.74394152  0.78361392    -1.36400
O3383       O  0.53227131  0.68210579  0.66528557    -0.90080
O3384       O  0.51872665  0.75362339  0.84917717    -0.90740
O3385       O  0.54524712  0.80423045  0.79224004    -0.79570
O3386       O  0.52911762  0.68228961  0.74789105    -1.01650
C3387       C  0.55402863  0.80941474  0.69488259     1.21490
O3388       O  0.97853276  0.80424151  0.73746323    -1.36550
Mn3389     Mn  0.94907173  0.75756248  0.74158557     1.82060
O3390       O  0.56047694  0.78400768  0.71586000    -0.78640
O3391       O  0.55048252  0.73847406  0.66010586    -0.88040
C3392       C  0.92515076  0.77968545  0.66930833     1.12580
C3393       C  0.55255881  0.70655760  0.65051530     1.07300
O3394       O  0.90530455  0.77385661  0.77227471    -0.79580
O3395       O  0.49367671  0.73975011  0.71149669    -1.33270
O3396       O  0.93694248  0.80393063  0.80636568    -0.98790
C3397       C  0.48463929  0.88511544  0.69114150     1.06010
Mn3398     Mn  0.50231527  0.76309761  0.65907710     1.48570
O3399       O  0.96540702  0.88925450  0.72488054    -0.87990
Mn3400     Mn  0.97468965  0.77532907  0.82909012     1.49560
O3401       O  0.95670391  0.68208024  0.82736244    -0.91870
C3402       C  0.55965456  0.69486997  0.74669868     1.19210
C3403       C  0.93889750  0.69900827  0.85026848     1.11270
Mn3404     Mn  0.52188923  0.76788866  0.75043141     1.80970
O3405       O  0.95589716  0.79019891  0.66088313    -0.97020
Mn3406     Mn  0.49306738  0.68763683  0.78831497     1.49260
C3407       C  0.53860983  0.72546514  0.84489464     1.07780
Mn3408     Mn  0.97991948  0.82824379  0.68595376     1.49930
C3409       C  0.90405941  0.85653804  0.71851714     1.10690
O3410       O  0.99460627  0.82060909  0.80564365    -1.02820
O3411       O  0.47797033  0.72052908  0.63376701    -0.92480
C3412       C  0.52382699  0.82687583  0.80775072     1.21970
O3413       O  0.52705530  0.80768112  0.67528541    -1.03210
O3414       O  0.45041790  0.69640566  0.67985246    -0.90610
O3415       O  0.92653523  0.85098673  0.69332198    -0.90210
O3416       O  0.94295146  0.73295038  0.85544055    -0.90240
Mn3417     Mn  0.49319226  0.68354017  0.71069177     1.47860
O3418       O  0.91819907  0.76863440  0.70033351    -0.78710
C3419       C  0.90858444  0.78934401  0.80097613     1.15020
O3420       O  0.56341233  0.72745389  0.75623026    -0.77440
O3421       O  0.91824049  0.71300301  0.74595356    -0.77060
Mn3422     Mn  0.95823555  0.84316440  0.77128787     1.51060
O3423       O  0.01007255  0.86594598  0.70681147    -0.89410
O3424       O  0.95913624  0.67330007  0.75232736    -0.96940
O3425       O  0.90960170  0.84670100  0.75006454    -0.91950
C3426       C  0.92640299  0.68092627  0.75226823     1.12810
O3427       O  0.78806917  0.55791573  0.84909180    -0.88590
C3428       C  0.80026235  0.49066773  0.66174193     1.11450
O3429       O  0.74199298  0.51276188  0.80404798    -1.36400
O3430       O  0.80738176  0.56600239  0.68700438    -0.90080
O3431       O  0.72898474  0.56084716  0.86042107    -0.90740
O3432       O  0.68419057  0.58124504  0.80894825    -0.79570
O3433       O  0.80303734  0.55521177  0.77098650    -1.01650
C3434       C  0.67681083  0.58689183  0.71678900     1.21490
O3435       O  0.68358957  0.50858621  0.76043863    -1.36550
Mn3436     Mn  0.72866470  0.47712661  0.76462022     1.82060
O3437       O  0.70094042  0.59387645  0.73739026    -0.78640
O3438       O  0.75124651  0.58242727  0.67871886    -0.88040
C3439       C  0.71259370  0.95486790  0.69210711     1.12580
C3440       C  0.78359346  0.58418618  0.66963711     1.07300
O3441       O  0.71255720  0.93131668  0.79913998    -0.79580
O3442       O  0.74886058  0.52291826  0.73212303    -1.33270
O3443       O  0.68447349  0.96480192  0.83385278    -0.98790
C3444       C  0.59605845  0.51924630  0.74025696     1.06010
Mn3445     Mn  0.72736624  0.53331710  0.68083586     1.48570
O3446       O  0.59789967  0.50073251  0.76954455    -0.87990
Mn3447     Mn  0.70956891  0.50921583  0.84859757     1.49560
O3448       O  0.79438156  0.47530366  0.84683636    -0.91870
C3449       C  0.79680191  0.58735408  0.77204621     1.19210
C3450       C  0.77950404  0.47457771  0.87747172     1.11270
Mn3451     Mn  0.72101104  0.55440421  0.77072917     1.80970
O3452       O  0.70180958  0.48695240  0.68437317    -0.97020
Mn3453     Mn  0.79675336  0.51854892  0.81023036     1.49260
C3454       C  0.75999924  0.57482877  0.85960120     1.07780
Mn3455     Mn  0.66143983  0.50906646  0.70939421     1.49930
C3456       C  0.63484684  0.93033327  0.74263806     1.10690
O3457       O  0.67359335  0.52734263  0.81705752    -1.02820
O3458       O  0.77265088  0.50918069  0.65304107    -0.92480
C3459       C  0.66361133  0.55710266  0.82237277     1.21970
O3460       O  0.68074101  0.55820566  0.69884774    -1.03210
O3461       O  0.80701364  0.48398724  0.69373984    -0.90610
O3462       O  0.63978992  0.95493620  0.71811768    -0.90210
O3463       O  0.74815825  0.98549893  0.88271301    -0.90240
Mn3464     Mn  0.80485706  0.52425958  0.73015420     1.47860
O3465       O  0.72044921  0.94542867  0.72329634    -0.78710
C3466       C  0.69633764  0.93464520  0.82879239     1.15020
O3467       O  0.76365843  0.59591276  0.77616451    -0.77440
O3468       O  0.77232693  0.94508151  0.76941388    -0.77060
Mn3469     Mn  0.64794373  0.98478073  0.79927494     1.51060
O3470       O  0.62268409  0.53568954  0.73053839    -0.89410
O3471       O  0.80748656  0.48782693  0.76964156    -0.96940
O3472       O  0.63931427  0.93567002  0.77556406    -0.91950
C3473       C  0.80130170  0.45561026  0.76673107     1.12810
O3474       O  0.83268042  0.72183445  0.94395213    -0.88590
C3475       C  0.65154477  0.67356605  0.01024865     1.11450
O3476       O  0.78406015  0.75231154  0.00285153    -1.36400
O3477       O  0.68108053  0.68608883  0.94120933    -0.90080
O3478       O  0.84214788  0.77904222  0.95727947    -0.90740
O3479       O  0.78518309  0.82239097  0.94378632    -0.79570
O3480       O  0.75946372  0.70135988  0.95372876    -1.01650
C3481       C  0.68749787  0.81907840  0.93898822     1.21490
O3482       O  0.73190951  0.80687622  0.51607020    -1.36550
Mn3483     Mn  0.73926552  0.75596001  0.54092205     1.82060
O3484       O  0.71710231  0.80493475  0.93327854    -0.78640
O3485       O  0.67542368  0.74452716  0.93343388    -0.88040
C3486       C  0.66199452  0.75853640  0.56038224     1.12580
C3487       C  0.66653691  0.71376245  0.92566150     1.07300
O3488       O  0.77056558  0.76851866  0.58647992    -0.79580
O3489       O  0.71378847  0.74100044  0.99304841    -1.33270
O3490       O  0.80195446  0.80357489  0.55392806    -0.98790
C3491       C  0.70263202  0.89686441  0.01594621     1.06010
Mn3492     Mn  0.66139568  0.75798304  0.98363386     1.48570
O3493       O  0.73233718  0.89176691  0.03180160    -0.87990
Mn3494     Mn  0.82440174  0.78840048  0.51000294     1.49560
O3495       O  0.83835375  0.69335445  0.01947947    -0.91870
C3496       C  0.76117025  0.71244274  0.92340619     1.19210
C3497       C  0.86283469  0.71350724  0.53154782     1.11270
Mn3498     Mn  0.74984622  0.77897590  0.96638082     1.80970
O3499       O  0.65640124  0.77676377  0.53257133    -0.97020
Mn3500     Mn  0.79835522  0.70042398  0.98491183     1.49260
C3501       C  0.84202367  0.75402402  0.93509254     1.07780
Mn3502     Mn  0.67780728  0.82530667  0.51761734     1.49930
C3503       C  0.70738814  0.84444658  0.59520528     1.10690
O3504       O  0.79287033  0.82824600  0.99680173    -1.02820
O3505       O  0.64056758  0.70435583  0.99754372    -0.92480
C3506       C  0.79721309  0.84152692  0.96789345     1.21970
O3507       O  0.67066773  0.80998257  0.96741124    -1.03210
O3508       O  0.68304498  0.66966354  0.02044497    -0.90610
O3509       O  0.68243060  0.84197282  0.57232527    -0.90210
O3510       O  0.86258474  0.74810349  0.52798468    -0.90240
Mn3511     Mn  0.72111152  0.68507677  0.98316970     1.47860
O3512       O  0.69308190  0.75694766  0.57265781    -0.78710
C3513       C  0.79940790  0.78563509  0.58127609     1.15020
O3514       O  0.76149952  0.74672370  0.91893240    -0.77440
O3515       O  0.74620260  0.70632729  0.56522336    -0.77060
Mn3516     Mn  0.76616120  0.84227200  0.54048169     1.51060
O3517       O  0.69409242  0.87400550  0.49583509    -0.89410
O3518       O  0.76214599  0.67736112  0.01754183    -0.96940
O3519       O  0.73991995  0.83853028  0.58784649    -0.91950
C3520       C  0.76044900  0.67949188  0.55151335     1.12810
C3521       C  0.79080588  0.60385590  0.63497647    -0.05880
C3522       C  0.80348229  0.63927501  0.63444047    -0.33310
C3523       C  0.79631061  0.66327018  0.60552070     0.35940
C3524       C  0.77678250  0.65196414  0.57614844    -0.06240
C3525       C  0.76766885  0.61559289  0.57486823    -0.33210
C3526       C  0.77414801  0.59175083  0.60399230     0.35850
H3527       H  0.81578376  0.64945377  0.65782395     0.16220
O3528       O  0.80685128  0.69851430  0.60708775    -0.60710
H3529       H  0.75241275  0.60637215  0.55288408     0.16230
O3530       O  0.76018757  0.55770831  0.60342147    -0.60800
H3531       H  0.77714394  0.54377148  0.58837301     0.43230
H3532       H  0.78848253  0.70991780  0.62254103     0.43180
C3533       C  0.70973365  0.92500121  0.66786975    -0.05880
C3534       C  0.73461369  0.89652461  0.67101668    -0.33310
C3535       C  0.73055187  0.86492112  0.65244244     0.35940
C3536       C  0.70128500  0.86157591  0.62985541    -0.06240
C3537       C  0.67331102  0.88646390  0.63287322    -0.33210
C3538       C  0.67858592  0.91974735  0.64901538     0.35850
H3539       H  0.75760374  0.89896184  0.68765438     0.16220
O3540       O  0.75613207  0.83811722  0.65504726    -0.60710
H3541       H  0.64909318  0.88195214  0.61890382     0.16230
O3542       O  0.65224358  0.94572497  0.64827259    -0.60800
H3543       H  0.66092895  0.96484592  0.63105044     0.43230
H3544       H  0.77842290  0.84882695  0.64468586     0.43180
C3545       C  0.67676977  0.84499451  0.90835981    -0.05880
C3546       C  0.69339345  0.83922940  0.87455243    -0.33310
C3547       C  0.69910954  0.86735827  0.84862945     0.35940
C3548       C  0.68734461  0.90297271  0.85481792    -0.06240
C3549       C  0.66670462  0.90797358  0.88666851    -0.33210
C3550       C  0.66083403  0.87920772  0.91282536     0.35850
H3551       H  0.70497022  0.81290668  0.86913487     0.16220
O3552       O  0.71758281  0.85969975  0.81779806    -0.60710
H3553       H  0.65568647  0.93456756  0.89179027     0.16230
O3554       O  0.64107816  0.88495667  0.94334210    -0.60800
H3555       H  0.62022349  0.89997021  0.93623173     0.43230
H3556       H  0.74306083  0.85987643  0.82417410     0.43180
C3557       C  0.76372384  0.61258384  0.87125539    -0.05880
C3558       C  0.74084651  0.64063942  0.85866500    -0.33310
C3559       C  0.74340988  0.67624930  0.87094722     0.35940
C3560       C  0.76798334  0.68380668  0.89717171    -0.06240
C3561       C  0.79196345  0.65585650  0.90791183    -0.33210
C3562       C  0.79046299  0.62107074  0.89478477     0.35850
H3563       H  0.72065447  0.63483824  0.83966333     0.16220
O3564       O  0.71997895  0.70253324  0.85939267    -0.60710
H3565       H  0.81060816  0.66023777  0.92880403     0.16230
O3566       O  0.81372243  0.59487930  0.90718299    -0.60800
H3567       H  0.80191571  0.58402152  0.92890450     0.43230
H3568       H  0.73241063  0.71512580  0.83895454     0.43180
C3569       C  0.89423607  0.65549661  0.75812682    -0.05880
C3570       C  0.85931846  0.67115993  0.76194733    -0.33310
C3571       C  0.82781217  0.65034123  0.76742524     0.35940
C3572       C  0.82949006  0.61228027  0.76869019    -0.06240
C3573       C  0.86436776  0.59651188  0.76503726    -0.33210
C3574       C  0.89600310  0.61736358  0.76010441     0.35850
H3575       H  0.85605187  0.70033929  0.76075826     0.16220
O3576       O  0.79551926  0.66776701  0.77074787    -0.60710
H3577       H  0.86741063  0.56729729  0.76581351     0.16230
O3578       O  0.92828472  0.59994894  0.75666123    -0.60800
H3579       H  0.93714088  0.59708330  0.78125548     0.43230
H3580       H  0.79235039  0.67197168  0.79657096     0.43180
C3581       C  0.82886805  0.92977198  0.75092704    -0.05880
C3582       C  0.86040974  0.94285608  0.73535008    -0.33310
C3583       C  0.88355972  0.91974547  0.71742436     0.35940
C3584       C  0.87504134  0.88257410  0.71479091    -0.06240
C3585       C  0.84191121  0.87034085  0.72747353    -0.33210
C3586       C  0.81927279  0.89318979  0.74627198     0.35850
H3587       H  0.86741581  0.97113609  0.73718442     0.16220
O3588       O  0.91540722  0.93345663  0.70451655    -0.60710
H3589       H  0.83553962  0.84178271  0.72677143     0.16230
O3590       O  0.78833773  0.87898636  0.76091077    -0.60800
H3591       H  0.79501968  0.86878662  0.78461928     0.43230
H3592       H  0.92663099  0.94540630  0.72460667     0.43180
C3593       C  0.59091126  0.66959316  0.73785289    -0.05880
C3594       C  0.59028145  0.63500291  0.75328691    -0.33310
C3595       C  0.61749910  0.60920756  0.74693742     0.35940
C3596       C  0.64409890  0.61350308  0.71916091    -0.06240
C3597       C  0.64588932  0.64972339  0.70479835    -0.33170
C3598       C  0.62049022  0.67758444  0.71460288     0.35850
H3599       H  0.56989688  0.62884261  0.77356410     0.16220
O3600       O  0.62090750  0.58252810  0.77235835    -0.60710
H3601       H  0.66808586  0.65705585  0.68706922     0.16230
O3602       O  0.62483484  0.71223332  0.70097075    -0.60800
H3603       H  0.63949361  0.72443160  0.71847020     0.43230
H3604       H  0.59654942  0.57436081  0.77965328     0.43180
C3605       C  0.57534465  0.84214284  0.70324804    -0.05880
C3606       C  0.56623742  0.85891294  0.73549710    -0.33310
C3607       C  0.58594724  0.88648161  0.74909209     0.35940
C3608       C  0.61835650  0.89591874  0.73288012    -0.06240
C3609       C  0.63185614  0.87418330  0.70559091    -0.33210
C3610       C  0.61031492  0.84794321  0.69000086     0.35850
H3611       H  0.54175324  0.85232546  0.74916924     0.16220
O3612       O  0.57217976  0.90549150  0.77704011    -0.60710
H3613       H  0.65960058  0.87612550  0.69841942     0.16230
O3614       O  0.62416309  0.82692434  0.66355716    -0.60800
H3615       H  0.63699533  0.80680857  0.67607586     0.43230
H3616       H  0.58506897  0.89605398  0.79819989     0.43180
C3617       C  0.89340016  0.78283366  0.64617637    -0.05880
C3618       C  0.85913395  0.77538501  0.66174924    -0.33310
C3619       C  0.82812193  0.77587840  0.64156746     0.35940
C3620       C  0.83054947  0.78519604  0.60519094    -0.06240
C3621       C  0.86441094  0.79461850  0.59018104    -0.33210
C3622       C  0.89560870  0.79227004  0.60986457     0.35850
H3623       H  0.85603678  0.76875237  0.68997608     0.16220
O3624       O  0.79550679  0.76931961  0.65791593    -0.60710
H3625       H  0.86703813  0.80290645  0.56244831     0.16230
O3626       O  0.92795342  0.79858977  0.59312362    -0.60800
H3627       H  0.93565781  0.77488055  0.58380846     0.43230
H3628       H  0.79793063  0.74597295  0.67160261     0.43180
C3629       C  0.63272471  0.73724417  0.57900662    -0.05880
C3630       C  0.59712788  0.74264836  0.56933431    -0.33310
C3631       C  0.56918980  0.72551266  0.58886846     0.35940
C3632       C  0.57631632  0.70220643  0.61867855    -0.06240
C3633       C  0.61177184  0.69191129  0.62396876    -0.33210
C3634       C  0.63992145  0.70989831  0.60544584     0.35850
H3635       H  0.59063472  0.76187635  0.54795329     0.16220
O3636       O  0.53466811  0.73475098  0.58105059    -0.60710
H3637       H  0.61775936  0.67221044  0.64474302     0.16230
O3638       O  0.67429726  0.70088022  0.61400515    -0.60800
H3639       H  0.67921653  0.71470897  0.63546131     0.43230
H3640       H  0.53083598  0.75942195  0.59015978     0.43180
C3641       C  0.63336341  0.71318969  0.90582931    -0.05880
C3642       C  0.63204326  0.69773533  0.87266556    -0.33310
C3643       C  0.60159983  0.70226818  0.85200720     0.35940
C3644       C  0.57173314  0.72194550  0.86499078    -0.06240
C3645       C  0.57383825  0.73888973  0.89739239    -0.33210
C3646       C  0.60435599  0.73519406  0.91748896     0.35850
H3647       H  0.65524253  0.68397282  0.86193806     0.16220
O3648       O  0.60190191  0.68881987  0.81849291    -0.60710
H3649       H  0.55173517  0.75508399  0.90736874     0.16230
O3650       O  0.60591457  0.75380181  0.94841542    -0.60800
H3651       H  0.58748378  0.74299216  0.96485094     0.43230
H3652       H  0.61699693  0.70568021  0.80366878     0.43180
C3653       C  0.88201337  0.78391200  0.82992047    -0.05880
C3654       C  0.86841005  0.74902506  0.83642628    -0.33310
C3655       C  0.85392699  0.73876737  0.87005120     0.35940
C3656       C  0.85223733  0.76402236  0.89729722    -0.06240
C3657       C  0.85866370  0.80063969  0.88745682    -0.33210
C3658       C  0.87543873  0.81036913  0.85498900     0.35850
H3659       H  0.87245931  0.72847465  0.81682727     0.16220
O3660       O  0.84340901  0.70370601  0.87646412    -0.60710
H3661       H  0.85099295  0.82198740  0.90479189     0.16230
O3662       O  0.88544568  0.84561693  0.84805660    -0.60800
H3663       H  0.90767231  0.84861230  0.86134015     0.43230
H3664       H  0.82896459  0.69723520  0.85589969     0.43180
C3665       C  0.82588296  0.86845905  0.96632225    -0.05880
C3666       C  0.81586150  0.90101198  0.98284375    -0.33310
C3667       C  0.83641440  0.91482718  0.01028699     0.35940
C3668       C  0.86687180  0.89551691  0.52642417    -0.06240
C3669       C  0.87130144  0.86042433  0.51411307    -0.33210
C3670       C  0.85863940  0.85310266  0.97765977     0.35850
H3671       H  0.79104523  0.91447604  0.97595789     0.16220
O3672       O  0.82907679  0.94867545  0.02250092    -0.60710
H3673       H  0.89484553  0.84506704  0.52206121     0.16230
O3674       O  0.88070945  0.83424373  0.95539414    -0.60800
H3675       H  0.89507495  0.85136222  0.44525323     0.43230
H3676       H  0.81169919  0.94473831  0.04256933     0.43180
C3677       C  0.92995947  0.62619845  0.52564707    -0.05880
C3678       C  0.94456583  0.65757340  0.01641483    -0.33310
C3679       C  0.92622820  0.69038264  0.02318800     0.35940
C3680       C  0.89459950  0.69196283  0.54207703    -0.06240
C3681       C  0.88711890  0.65979843  0.56172515    -0.33210
C3682       C  0.90325365  0.62688402  0.55269439     0.35850
H3683       H  0.96847250  0.65827985  0.99959909     0.16220
O3684       O  0.93891321  0.72229340  0.00813925    -0.60710
H3685       H  0.86448788  0.65901319  0.58012741     0.16230
O3686       O  0.89083386  0.59521984  0.56852246    -0.60800
H3687       H  0.88827123  0.59969936  0.59434217     0.43230
H3688       H  0.92267640  0.72896597  0.98854045     0.43180
C3689       C  0.67328939  0.92523198  0.52589476    -0.05880
C3690       C  0.65741258  0.92654786  0.56014095    -0.33310
C3691       C  0.61970543  0.93272942  0.56657701     0.35940
C3692       C  0.59736757  0.94108504  0.53791491    -0.06240
C3693       C  0.61592197  0.94737380  0.50431612    -0.33210
C3694       C  0.65282378  0.93993117  0.99766261     0.35850
H3695       H  0.67567491  0.92321723  0.58089953     0.16220
O3696       O  0.60528369  0.93064311  0.60037775    -0.60710
H3697       H  0.60195163  0.95640444  0.98009823     0.16230
O3698       O  0.66808402  0.94662909  0.96455506    -0.60800
H3699       H  0.67531838  0.97239552  0.96431053     0.43230
H3700       H  0.59339857  0.90682699  0.60264044     0.43180
C3701       C  0.60139219  0.57334794  0.98415410    -0.05880
C3702       C  0.59493240  0.60584437  0.96485887    -0.33310
C3703       C  0.60701258  0.63900964  0.97639852     0.35940
C3704       C  0.63128158  0.63982034  0.00430399    -0.06240
C3705       C  0.64217627  0.60726655  0.51914288    -0.33210
C3706       C  0.62683154  0.57455639  0.50923698     0.35850
H3707       H  0.57529564  0.60636321  0.94424285     0.16220
O3708       O  0.59270434  0.67063944  0.96238023    -0.60710
H3709       H  0.66175756  0.60641133  0.53985631     0.16230
O3710       O  0.63378679  0.54317756  0.52857024    -0.60800
H3711       H  0.65078409  0.52932944  0.51350567     0.43230
H3712       H  0.58605813  0.66630969  0.93751180     0.43180
C3713       C  0.86750876  0.97532557  0.94183787    -0.05880
C3714       C  0.86395446  0.94640420  0.91896057    -0.33310
C3715       C  0.83211010  0.94138045  0.90152945     0.35940
C3716       C  0.80347491  0.96577017  0.90650544    -0.06240
C3717       C  0.80546217  0.99176441  0.93262255    -0.33210
C3718       C  0.83736052  0.99701118  0.94999184     0.35850
H3719       H  0.88637177  0.92857850  0.91332400     0.16220
O3720       O  0.83051969  0.91511031  0.87672285    -0.60710
H3721       H  0.78387370  0.01113434  0.93630255     0.16230
O3722       O  0.83977500  0.02583900  0.97183271    -0.60800
H3723       H  0.82839384  0.01767851  0.99481246     0.43230
H3724       H  0.81887366  0.89419346  0.88939310     0.43180
C3725       C  0.62960062  0.55898818  0.84267224    -0.05880
C3726       C  0.61331023  0.52523260  0.85060178    -0.33310
C3727       C  0.57758769  0.52236074  0.85827397     0.35940
C3728       C  0.55794908  0.55364525  0.86445581    -0.06240
C3729       C  0.57425867  0.58803628  0.85961378    -0.33210
C3730       C  0.61012167  0.59062515  0.84834289     0.35850
H3731       H  0.62788906  0.49995837  0.84999021     0.16220
O3732       O  0.55845134  0.99035266  0.85670003    -0.60710
H3733       H  0.55967365  0.61248621  0.86623567     0.16230
O3734       O  0.62593289  0.62355316  0.84335060    -0.60800
H3735       H  0.64463449  0.62374574  0.86152780     0.43230
H3736       H  0.56982561  0.97691076  0.87679313     0.43180
C3737       C  0.57049563  0.52998077  0.63621838    -0.05880
C3738       C  0.56717637  0.49539843  0.65368056    -0.33310
C3739       C  0.56545622  0.49080970  0.69128791     0.35940
C3740       C  0.56797803  0.52096610  0.71278191    -0.06240
C3741       C  0.56418197  0.55550888  0.69530784    -0.33210
C3742       C  0.56753552  0.56028600  0.65785920     0.35850
H3743       H  0.56350613  0.97094315  0.63928139     0.16220
O3744       O  0.56080974  0.95582734  0.70817816    -0.60710
H3745       H  0.56432341  0.57946217  0.71097742     0.16230
O3746       O  0.56841727  0.59473409  0.64297599    -0.60800
H3747       H  0.59375969  0.60203830  0.64352647     0.43230
H3748       H  0.57306445  0.93872226  0.69205942     0.43180
C3749       C  0.90152854  0.47807453  0.60786669    -0.05880
C3750       C  0.88002919  0.95346431  0.61165569    -0.33310
C3751       C  0.84540688  0.95575095  0.62677362     0.35940
C3752       C  0.83063059  0.48577632  0.63654304    -0.06240
C3753       C  0.85325934  0.51533707  0.63212184    -0.33210
C3754       C  0.88856889  0.51131045  0.62011017     0.35850
H3755       H  0.88767771  0.92814251  0.60075643     0.16220
O3756       O  0.82517355  0.92510009  0.63124610    -0.60710
H3757       H  0.84444408  0.54179885  0.64009887     0.16230
O3758       O  0.91004786  0.54093259  0.61838566    -0.60800
H3759       H  0.90563975  0.55324562  0.64107364     0.43230
H3760       H  0.81111839  0.92407109  0.60932427     0.43180
C3761       C  0.91404074  0.67497507  0.87122617    -0.05880
C3762       C  0.90092291  0.64464558  0.85385729    -0.33310
C3763       C  0.89855014  0.61070463  0.87150684     0.35940
C3764       C  0.90744489  0.60792583  0.90736290    -0.06240
C3765       C  0.90728523  0.64031130  0.92658485    -0.33210
C3766       C  0.91340388  0.67368525  0.90845495     0.35850
H3767       H  0.89899489  0.64571403  0.82543331     0.16220
O3768       O  0.89504967  0.58025224  0.85210815    -0.60710
H3769       H  0.91097057  0.63882605  0.95503616     0.16230
O3770       O  0.92366537  0.70303121  0.92682827    -0.60800
H3771       H  0.94956197  0.69943699  0.93059451     0.43230
H3772       H  0.86897239  0.57703080  0.85013756     0.43180
C3773       C  0.52674557  0.91305334  0.88933320    -0.05880
C3774       C  0.50977094  0.91752482  0.85633674    -0.33310
C3775       C  0.01816337  0.89234921  0.83031057     0.35940
C3776       C  0.53108198  0.85788496  0.83372851    -0.06240
C3777       C  0.54883672  0.85331894  0.86659917    -0.33210
C3778       C  0.54650431  0.87996504  0.89393622     0.35850
H3779       H  0.00346064  0.94491255  0.85013261     0.16220
O3780       O  0.00354143  0.90058482  0.79788685    -0.60710
H3781       H  0.56262349  0.82793589  0.87230396     0.16230
O3782       O  0.56137651  0.87182236  0.92617616    -0.60800
H3783       H  0.54299729  0.85777908  0.94000840     0.43230
H3784       H  0.97740460  0.89841140  0.80193920     0.43180
C3785       C  0.48951652  0.87120271  0.56532284    -0.05880
C3786       C  0.95551065  0.87463957  0.59626177    -0.33310
C3787       C  0.95410525  0.88674548  0.63272030     0.35940
C3788       C  0.48270533  0.88493083  0.64795350    -0.06240
C3789       C  0.51563920  0.87709601  0.62912271    -0.33210
C3790       C  0.51962744  0.86734474  0.59241419     0.35850
H3791       H  0.93030913  0.86873833  0.58462799     0.16220
O3792       O  0.92186035  0.89811071  0.64615373    -0.60710
H3793       H  0.53996846  0.87666183  0.64398617     0.16230
O3794       O  0.55274717  0.85586137  0.58081617    -0.60800
H3795       H  0.55886360  0.87067575  0.55906707     0.43230
H3796       H  0.90383108  0.88020843  0.63947499     0.43180
C3797       C  0.95482784  0.66237018  0.63224643    -0.05880
C3798       C  0.48040095  0.65680830  0.60346315    -0.33310
C3799       C  0.49786881  0.62419649  0.60030397     0.35940
C3800       C  0.98194636  0.59342786  0.62018313    -0.06240
C3801       C  0.95888247  0.59840548  0.64908815    -0.33210
C3802       C  0.94312215  0.63215651  0.65361464     0.35850
H3803       H  0.48887758  0.67944926  0.58623042     0.16220
O3804       O  0.52424803  0.62136306  0.57448894    -0.60710
H3805       H  0.95133557  0.57575571  0.66667012     0.16230
O3806       O  0.91810280  0.63594973  0.68049113    -0.60800
H3807       H  0.89476256  0.63449196  0.66884472     0.43230
H3808       H  0.51374649  0.62977092  0.55163831     0.43180
loop_ 
_geom_bond_atom_site_label_1 
_geom_bond_atom_site_label_2 
_geom_bond_distance 
_geom_bond_site_symmetry_2 
_ccdc_geom_bond_type 
O1           C28   1.258       .  A
O1          Mn27   2.006       .  S
C2         O1939   1.225       .  A
C2         O1936   1.254       .  A
C2          C468   1.431       .  S
O3          Mn27   2.113   1_655  S
O3        Mn2390   2.115       .  S
O3        Mn2877   2.130   1_545  S
O3         Mn977   2.094   1_645  S
O4           C14   1.272       .  A
O4          Mn38   2.204       .  S
O5          C980   1.284       .  A
O5        Mn1925   2.107   1_455  S
O6           C33   1.272       .  A
O6          Mn25   2.242       .  S
O7          Mn27   1.982       .  S
O7         Mn514   1.955       .  S
O7           C23   1.218       .  S
C8           O11   1.216       .  A
C8          C360   1.560       .  S
C8           O34   1.285       .  S
O9          Mn29   2.166       .  S
O9         Mn962   2.090       .  S
O9         Mn519   2.063   1_554  S
O9        Mn2405   2.094   1_554  S
Mn10         O39   2.007       .  S
Mn10        O491   2.082   1_554  S
Mn10        O518   2.099       .  S
Mn10       O2383   2.114   1_554  S
Mn10        O961   2.095   1_545  S
Mn10       O1920   2.152       .  S
O11        Mn501   1.950   1_554  S
O12          C14   1.241       .  A
O12         Mn19   2.008   1_545  S
C13          O39   1.245   1_565  A
C13         C417   1.484       .  S
C13         O978   1.246       .  S
C14         C405   1.513       .  S
O15         C992   1.253   1_545  A
O15        Mn486   2.096       .  S
O16         Mn19   2.199   1_545  S
O16         Mn38   2.054       .  S
O16       Mn1914   2.141   1_455  S
O16       Mn1453   2.174   1_544  S
O17         Mn21   1.955       .  S
O17         Mn43   1.989       .  S
O17          C40   1.220       .  S
C18          O44   1.145       .  A
C18         O496   1.319   1_554  A
C18        C2357   1.820       .  S
Mn19         O32   2.168   1_465  S
Mn19        O986   1.999       .  S
Mn19       O2882   2.004   1_455  S
O20         C494   1.323       .  A
O20         Mn43   2.246       .  S
Mn21       O1909   2.106       .  S
Mn21        O989   2.166       .  S
Mn21       O2859   2.126       .  S
Mn21         O31   2.064       .  S
O22          C24   1.262       .  A
O22       Mn1931   2.023       .  S
C23          O41   1.273       .  A
C23         C369   1.465       .  S
C24          O37   1.287       .  A
C24         C432   1.488       .  S
Mn25        O487   1.967       .  S
Mn25        O993   2.130       .  S
Mn25        O955   2.090   1_455  S
Mn25       O2389   2.126   1_455  S
Mn25       O1444   2.177       .  S
O26         Mn29   1.928       .  S
O26       Mn2875   1.984       .  S
O26         C965   1.248       .  S
Mn27       O1926   2.022   1_455  S
Mn27         O45   1.909   1_455  S
C28         O957   1.283       .  A
C28         C396   1.449       .  S
Mn29         O36   2.157       .  S
Mn29         O44   1.957       .  S
Mn29       O1938   2.103       .  S
C30          O36   1.274       .  A
C30         O522   1.248   1_554  A
C30         C336   1.459       .  S
O31         Mn43   2.006       .  S
O31        C1937   1.216       .  S
O32        C1906   1.262       .  A
C33         C441   1.567       .  S
C33        O1935   1.212   1_455  S
O34        Mn971   1.990       .  S
O34       Mn1933   2.107   1_455  S
O35        C1906   1.222       .  A
O35         Mn38   1.994   1_655  S
O37        Mn973   2.167   1_545  S
Mn38        O483   1.956   1_554  S
Mn38        O521   1.940   1_455  S
C40         O967   1.251       .  A
C40         C381   1.468       .  S
O41        Mn977   2.154   1_545  S
O42          C47   1.246       .  A
O42        Mn486   2.092       .  S
Mn43         O46   1.960       .  S
Mn43        O485   2.054       .  S
O45        Mn514   1.939   1_655  S
O45        C1951   1.219       .  S
O46         C506   1.246       .  A
C47         C821   1.493       .  S
C47        O1949   1.217       .  S
O48          C75   1.274       .  A
O48         Mn74   2.072   1_455  S
C49        O1986   1.237       .  A
C49        O1983   1.267       .  A
C49         C465   1.441       .  S
O50         Mn57   2.097       .  S
O50         Mn68   2.107       .  S
O50       Mn1976   2.067       .  S
O50       Mn1978   2.155       .  S
O51          C61   1.290       .  A
O51         Mn85   2.236   1_455  S
O52          C75   1.288       .  A
O52       Mn1972   2.130   1_455  S
O53          C80   1.298       .  A
O53         Mn72   2.303       .  S
O54         Mn85   1.964   1_455  S
O54         Mn74   2.022   1_455  S
O54          C70   1.240       .  S
C55          O58   1.230       .  A
C55         C273   1.503       .  S
C55          O81   1.271       .  S
O56         Mn76   2.095       .  S
O56         Mn57   2.062       .  S
O56         Mn90   2.061       .  S
O56       Mn1976   2.201       .  S
Mn57         O86   1.976       .  S
Mn57         O62   2.085       .  S
Mn57         O89   2.022       .  S
Mn57       O1967   2.108       .  S
O58         Mn72   2.000       .  S
O59          C61   1.243       .  A
O59         Mn66   2.012       .  S
C60          O86   1.241       .  A
C60         C285   1.488       .  S
C60          O73   1.250       .  S
C61         C300   1.491       .  S
O62          C87   1.250       .  A
O63         Mn66   2.139   1_655  S
O63         Mn85   2.078       .  S
O63         Mn72   2.138   1_655  S
O63       Mn1961   2.108       .  S
O64         Mn68   1.944       .  S
O64         Mn90   2.087       .  S
O64          C87   1.221       .  S
C65        O1995   1.189   1_655  A
C65        O1971   1.299       .  A
C65         C456   1.625       .  S
Mn66         O79   2.109   1_455  S
Mn66         O81   2.020       .  S
Mn66       O1977   1.974   1_455  S
O67        C1969   1.300       .  A
O67         Mn90   2.403       .  S
Mn68         O84   2.168       .  S
Mn68       O1956   2.119       .  S
Mn68         O78   1.983       .  S
O69          C71   1.257       .  A
O69       Mn1978   2.014       .  S
C70          O88   1.277       .  A
C70         C261   1.527       .  S
C71          O84   1.286       .  A
C71         C429   1.485       .  S
Mn72         O88   2.152       .  S
Mn72       O1954   2.066   1_455  S
Mn72       O1960   2.197   1_455  S
O73         Mn76   1.950       .  S
O73       Mn1970   1.968       .  S
Mn74       O1973   2.013       .  S
Mn74       O1954   2.157       .  S
Mn74       O1996   2.003       .  S
C75         C312   1.479       .  S
Mn76         O83   2.196       .  S
Mn76         O91   2.026       .  S
Mn76       O1985   1.957       .  S
C77          O83   1.273       .  A
C77          O93   1.250       .  A
C77         C252   1.454       .  S
O78         Mn90   2.061       .  S
O78        C1984   1.207       .  S
O79        C1953   1.269       .  A
C80         C444   1.567       .  S
C80        O1982   1.208   1_455  S
O81       Mn1980   1.955   1_455  S
O82        C1953   1.234       .  A
O82         Mn85   2.039       .  S
Mn85       O1996   2.046       .  S
C87         C321   1.470       .  S
O89          C94   1.237       .  A
Mn90         O93   2.014       .  S
O91        C1969   1.188       .  A
O92       Mn1978   1.998       .  S
O92       Mn1989   2.039       .  S
O92          C94   1.254       .  S
C94         C237   1.536       .  S
O95         C122   1.279       .  A
O95        Mn121   2.112       .  S
C96         O129   1.245       .  A
C96         O126   1.272   1_565  A
C96         C420   1.463       .  S
O97        Mn104   2.089   1_545  S
O97        Mn115   2.052       .  S
O97        Mn119   2.109       .  S
O97        Mn121   2.098       .  S
O98         C108   1.289       .  A
O98        Mn132   2.207       .  S
O99         C122   1.277       .  A
O99        Mn115   2.112       .  S
O100        C127   1.268       .  A
O100       Mn119   2.220       .  S
O101       Mn132   1.944       .  S
O101       Mn121   1.979       .  S
O101        C117   1.211       .  S
C102        O105   1.242       .  A
C102        C264   1.562       .  S
C102        O128   1.278       .  S
O103       Mn123   2.132       .  S
O103       Mn104   2.067   1_545  S
O103       Mn119   2.256       .  S
O103      Mn1089   2.106   1_545  S
Mn104      O1085   2.005       .  S
Mn104      O1061   2.181       .  S
Mn104      O1088   1.986       .  S
Mn104       O110   2.173   1_565  S
O105       Mn119   2.040       .  S
O106        C108   1.250       .  A
O106       Mn113   2.025       .  S
C107        O133   1.250       .  A
C107        C201   1.460       .  S
C107       O1072   1.242       .  S
C108        C189   1.492       .  S
O109        C134   1.259       .  A
O109      Mn1056   2.143       .  S
O110       Mn113   2.127       .  S
O110       Mn132   2.104       .  S
O110       Mn119   2.132       .  S
O111       Mn137   2.018       .  S
O111      Mn1067   1.991       .  S
O111        C134   1.213       .  S
C112        O138   1.226       .  A
C112        O114   1.280       .  A
C112        C408   1.486       .  S
Mn113       O126   2.157       .  S
Mn113       O128   2.064       .  S
Mn113       O120   1.972   1_545  S
O114      Mn1089   2.226   1_545  S
Mn115      O1083   2.112   1_545  S
Mn115       O125   1.914       .  S
Mn115      O1063   1.991   1_545  S
O116        C118   1.266       .  A
O116       Mn121   2.074   1_565  S
C117        O135   1.286       .  A
C117        C240   1.535       .  S
C118       O1083   1.275       .  A
C118       C1336   1.469       .  S
Mn119       O135   2.235       .  S
O120       Mn123   1.959   1_565  S
O120       C1059   1.247       .  S
Mn121       O139   1.981   1_545  S
C122        C225   1.483       .  S
Mn123       O138   1.934       .  S
Mn123      O1082   2.114   1_545  S
Mn123       O128   1.970       .  S
C124        O130   1.282       .  A
C124        O140   1.275       .  A
C124        C276   1.483       .  S
O125      Mn1089   1.967   1_545  S
O125        C127   1.179       .  S
C127        C393   1.473       .  S
O129       Mn132   2.043   1_565  S
O130      Mn1075   2.147       .  S
O131       C1070   1.273       .  A
O131      Mn1067   2.098       .  S
Mn132       O139   1.981   1_545  S
O133      Mn1056   2.000       .  S
C134        C216   1.504       .  S
O136       C1093   1.225       .  A
O136      Mn1056   1.978       .  S
Mn137       O140   2.080       .  S
Mn137      O1066   2.235       .  S
Mn137      O1055   2.125       .  S
Mn137      O1077   1.967       .  S
O139        C141   1.228       .  S
C141       O1088   1.227       .  A
C141       C1201   1.465       .  S
O142        C169   1.275       .  A
O142       Mn168   2.128       .  S
C143        O176   1.259       .  A
C143        O173   1.282       .  A
C143        C372   1.486       .  S
O144       Mn166   2.097       .  S
O144       Mn168   2.114       .  S
O144       Mn627   2.151       .  S
O144       Mn638   2.042       .  S
O145        C155   1.283       .  A
O145       Mn179   2.215       .  S
O146        C169   1.264       .  A
O146       Mn638   2.084       .  S
O147        C174   1.269       .  A
O147       Mn166   2.256       .  S
O148       Mn179   1.885       .  S
O148       Mn168   1.903       .  S
O148        C164   1.196       .  S
C149        O152   1.232       .  A
C149        C213   1.532       .  S
C149        O175   1.262       .  S
O150       Mn170   2.137       .  S
O150       Mn151   2.087       .  S
O150       Mn184   2.089       .  S
O150       Mn642   2.221   1_554  S
Mn151       O180   2.080       .  S
Mn151       O156   2.159       .  S
Mn151       O183   2.033       .  S
Mn151       O620   2.157       .  S
Mn151       O633   2.117   1_554  S
O152       Mn166   1.976       .  S
O153        C155   1.230       .  A
O153       Mn160   2.016       .  S
C154        O180   1.266       .  A
C154        C297   1.508       .  S
C154        O167   1.247       .  S
C155        C309   1.473       .  S
O156        C181   1.264       .  A
O157       Mn160   2.092       .  S
O157       Mn179   2.116       .  S
O157       Mn166   2.158       .  S
O157       Mn627   2.118       .  S
O158       Mn162   1.935       .  S
O158       Mn184   2.014       .  S
O158        C181   1.204       .  S
C159        O161   1.281       .  A
C159        O661   1.224       .  A
C159        C833   1.546       .  S
Mn160       O173   2.160       .  S
Mn160       O175   2.023       .  S
Mn160       O643   1.973       .  S
O161       Mn660   2.268       .  S
Mn162       O178   2.173       .  S
Mn162       O622   2.081   1_554  S
Mn162       O620   2.047       .  S
Mn162       O648   1.968   1_554  S
O163        C641   1.262       .  A
O163       Mn168   2.028       .  S
C164        O182   1.268       .  A
C164        C228   1.481       .  S
C165        O178   1.281       .  A
C165        O639   1.259       .  A
C165        C348   1.489       .  S
Mn166       O182   2.200       .  S
Mn166       O626   2.223       .  S
O167       Mn170   2.025       .  S
O167       Mn636   1.970   1_554  S
Mn168       O186   1.986       .  S
C169        C324   1.500       .  S
Mn170       O177   2.181       .  S
Mn170       O185   2.040   1_554  S
Mn170       O651   1.997   1_554  S
C171        O177   1.294       .  A
C171        O187   1.262       .  A
C171        C204   1.480       .  S
O172       Mn638   1.963       .  S
O172       Mn660   1.930       .  S
O172        C174   1.176       .  S
C174        C333   1.485       .  S
O175       Mn646   1.970       .  S
O176       Mn179   2.046       .  S
Mn179       O186   2.050       .  S
C181        C288   1.486       .  S
O183        C188   1.242       .  A
Mn184       O187   2.013       .  S
Mn184       O637   2.253       .  S
Mn184       O648   1.932   1_554  S
O185        C635   1.242   1_556  A
O186        C664   1.235       .  S
C188        C192   1.487       .  S
C188        O662   1.236       .  S
C189        C190   1.396       .  A
C189        C194   1.426       .  A
C190        C191   1.408       .  A
C190        H195   1.084       .  S
C191        C192   1.418       .  A
C191        O196   1.367       .  S
C192        C193   1.389       .  A
C193        C194   1.403       .  A
C193        H197   1.084       .  S
C194        O198   1.367       .  S
O196        H200   0.989       .  S
O198        H199   0.992       .  S
C201        C202   1.402       .  A
C201        C206   1.399       .  A
C202        C203   1.392       .  A
C202        H207   1.085       .  S
C203        C204   1.415       .  A
C203        O208   1.374       .  S
C204        C205   1.393       .  A
C205        C206   1.409       .  A
C205        H209   1.078       .  S
C206        O210   1.369       .  S
O208        H212   0.993       .  S
O210        H211   0.992       .  S
C213        C214   1.424       .  A
C213        C218   1.414       .  A
C214        C215   1.395       .  A
C214        H219   1.079       .  S
C215        C216   1.392       .  A
C215        O220   1.369       .  S
C216        C217   1.418       .  A
C217        C218   1.434       .  A
C217        H221   1.084       .  S
C218        O222   1.367       .  S
O220        H224   0.987       .  S
O222        H223   0.990       .  S
C225        C226   1.413       .  A
C225        C230   1.401       .  A
C226        C227   1.411       .  A
C226        H231   1.082       .  S
C227        C228   1.403       .  A
C227        O232   1.369       .  S
C228        C229   1.414       .  A
C229        C230   1.394       .  A
C229        H233   1.083       .  S
C230        O234   1.372       .  S
O232        H236   0.991       .  S
O234        H235   0.992       .  S
C237        C238   1.430       .  A
C237        C242   1.407       .  A
C238        C239   1.421       .  A
C238        H243   1.082       .  S
C239        C240   1.405       .  A
C239        O244   1.371       .  S
C240        C241   1.430       .  A
C241        C242   1.422       .  A
C241        H245   1.083       .  S
C242        O246   1.370       .  S
O244        H248   0.992       .  S
O246        H247   0.992       .  S
C249       C1093   1.468       .  S
C249        C250   1.392       .  A
C249        C254   1.419       .  A
C250        C251   1.396       .  A
C250        H255   1.084       .  S
C251        C252   1.419       .  A
C251        O256   1.373       .  S
C252        C253   1.395       .  A
C253        C254   1.391       .  A
C253        H257   1.085       .  S
C254        O258   1.372       .  S
O256        H260   0.993       .  S
O258        H259   0.992       .  S
C261        C262   1.384       .  A
C261        C266   1.421       .  A
C262        C263   1.411       .  A
C262        H267   1.085       .  S
C263        C264   1.427       .  A
C263        O268   1.355       .  S
C264        C265   1.424       .  A
C265        C266   1.444       .  A
C265        H269   1.083       .  S
C266        O270   1.370       .  S
O268        H272   0.993       .  S
O270        H271   0.991       .  S
C273        C274   1.414       .  A
C273        C278   1.407       .  A
C274        C275   1.385       .  A
C274        H279   1.067       .  S
C275        C276   1.386       .  A
C275        O280   1.370       .  S
C276        C277   1.405       .  A
C277        C278   1.421       .  A
C277        H281   1.070       .  S
C278        O282   1.371       .  S
O280        H284   0.992       .  S
O282        H283   0.992       .  S
C285        C286   1.423       .  A
C285        C290   1.394       .  A
C286        C287   1.402       .  A
C286        H291   1.083       .  S
C287        C288   1.397       .  A
C287        O292   1.374       .  S
C288        C289   1.416       .  A
C289        C290   1.398       .  A
C289        H293   1.076       .  S
C290        O294   1.370       .  S
O292        H296   0.992       .  S
O294        H295   0.992       .  S
C297        C298   1.404       .  A
C297        C302   1.421       .  A
C298        C299   1.410       .  A
C298        H303   1.083       .  S
C299        C300   1.419       .  A
C299        O304   1.372       .  S
C300        C301   1.397       .  A
C301        C302   1.410       .  A
C301        H305   1.074       .  S
C302        O306   1.372       .  S
O304        H308   0.992       .  S
O306        H307   0.992       .  S
C309        C310   1.389       .  A
C309        C314   1.423       .  A
C310        C311   1.403       .  A
C310        H315   1.080       .  S
C311        C312   1.416       .  A
C311        O316   1.369       .  S
C312        C313   1.393       .  A
C313        C314   1.395       .  A
C313        H317   1.084       .  S
C314        O318   1.373       .  S
O316        H320   0.992       .  S
O318        H319   0.992       .  S
C321        C322   1.401       .  A
C321        C326   1.398       .  A
C322        C323   1.404       .  A
C322        H327   1.083       .  S
C323        C324   1.410       .  A
C323        O328   1.367       .  S
C324        C325   1.412       .  A
C325        C326   1.395       .  A
C325        H329   1.071       .  S
C326        O330   1.373       .  S
O328        H332   0.993       .  S
O330        H331   0.992       .  S
C333        C334   1.417       .  A
C333        C338   1.422       .  A
C334        C335   1.421       .  A
C334        H339   1.083       .  S
C335        C812   1.416       .  A
C335        O340   1.369       .  S
C336        C337   1.397       .  A
C336        C811   1.415       .  A
C337        C814   1.394   1_554  A
C337        H341   1.087       .  S
C338        C813   1.394       .  A
C338        O342   1.364       .  S
O340        H344   0.991       .  S
O342        H819   0.992       .  S
H343        O818   0.992       .  S
C345        C523   1.501       .  S
C345        C350   1.410       .  A
C345        C822   1.413       .  A
C346        C347   1.412       .  A
C346        C821   1.411       .  A
C346        H351   1.083       .  S
C347        C824   1.411       .  A
C347        O352   1.373       .  S
C348        C349   1.402       .  A
C348        C823   1.413       .  A
C349        C350   1.402       .  A
C349        H353   1.079       .  S
C350        O354   1.375       .  S
O352        H356   0.990       .  S
O354        H355   0.992       .  S
C357        C635   1.541       .  S
C357        C358   1.407       .  A
C357        C838   1.397   1_554  A
C358        C359   1.450       .  A
C358        H363   1.055       .  S
C359        C360   1.404       .  A
C359        O364   1.367       .  S
C360        C361   1.439       .  A
C361        C838   1.413   1_554  A
C361        H841   1.080   1_554  S
C362        C833   1.435       .  A
C362        C837   1.406       .  A
C362        O366   1.360       .  S
O364        H368   0.990       .  S
H365        C837   1.085       .  S
O366        H367   0.986       .  S
C369        C370   1.401       .  A
C369        C850   1.405       .  A
C370        C371   1.394       .  A
C370        H375   1.083       .  S
C371        C372   1.408       .  A
C371        O376   1.375       .  S
C372        C849   1.414       .  A
C373        C374   1.404       .  A
C373        C848   1.413       .  A
C373        H377   1.083       .  S
C374        C845   1.403   1_554  A
C374        O378   1.371       .  S
O376        H380   0.992       .  S
O378        H379   0.992       .  S
C381        C382   1.404       .  A
C381        C386   1.408       .  A
C382        C383   1.390       .  A
C382        H387   1.084       .  S
C383        C384   1.406       .  A
C383        O388   1.371       .  S
C384       C1070   1.461       .  S
C384        C385   1.404       .  A
C385        C386   1.397       .  A
C385        H389   1.084       .  S
C386        O390   1.372       .  S
O388        H392   0.992       .  S
O390        H391   0.991       .  S
C393        C394   1.413       .  A
C393        C398   1.390       .  A
C394        C395   1.367       .  A
C394        H399   1.077   1_545  S
C395        C396   1.387       .  A
C395       O1352   1.373   1_545  S
C396        C397   1.420       .  A
C397        C398   1.403       .  A
C397        H401   1.084       .  S
C398        O402   1.361       .  S
O400       C1347   1.373       .  S
O400        H404   0.992       .  S
O402        H403   0.992       .  S
C405        C406   1.419   1_545  A
C405        C410   1.410       .  A
C406        C407   1.409       .  A
C406       H1363   1.083       .  S
C407        C408   1.404   1_565  A
C407       O1364   1.369       .  S
C408        C409   1.418       .  A
C409        C410   1.412       .  A
C409        H413   1.081       .  S
C410        O414   1.371       .  S
H411       C1358   1.082       .  S
O412       C1359   1.375       .  S
O412        H416   0.992       .  S
O414        H415   0.992       .  S
C417        C422   1.402   1_565  A
C417       C1370   1.413       .  A
C418        C419   1.404       .  A
C418       C1369   1.411       .  A
C418        H423   1.065       .  S
C419       C1372   1.400       .  A
C419        O424   1.372       .  S
C420        C421   1.394   1_565  A
C420       C1371   1.400       .  A
C421        C422   1.397       .  A
C421        H425   1.077       .  S
C422        O426   1.366       .  S
O424        H428   0.992       .  S
O426        H427   0.991       .  S
C429        C430   1.414       .  A
C429        C434   1.397       .  A
C430        C431   1.401       .  A
C430        H435   1.071       .  S
C431        C432   1.397       .  A
C431        O436   1.371       .  S
C432        C433   1.419       .  A
C433        C434   1.405       .  A
C433        H437   1.080       .  S
C434        O438   1.369       .  S
O436        H440   0.991       .  S
O438        H439   0.992       .  S
C441        C442   1.415       .  A
C441        C446   1.427       .  A
C442       C2347   1.432       .  A
C442       H2351   1.083       .  S
C443       C2346   1.427       .  A
C443       C2348   1.428       .  A
C443        O448   1.372       .  S
C444        C445   1.424       .  A
C444       C2347   1.428       .  A
C445        C446   1.449       .  A
C445        H449   1.083       .  S
C446        O450   1.371       .  S
H447       C2346   1.083       .  S
O448        H452   0.992       .  S
O450        H451   0.992       .  S
C453       C1922   1.826       .  S
C453        C458   1.541   1_655  A
C453       C2358   1.545       .  A
C454        C455   1.450       .  A
C454       C2357   1.542       .  A
C454        H459   1.080       .  S
C455       C2360   1.437       .  A
C455        O460   1.365       .  S
C456        C457   1.439   1_655  A
C456       C2359   1.437       .  A
C457        C458   1.441       .  A
C457        H461   1.082       .  S
C458        O462   1.374       .  S
O460        H464   0.994       .  S
O462        H463   0.990       .  S
C465        C470   1.416       .  A
C465       C2370   1.386       .  A
C466        C467   1.372       .  A
C466       C2369   1.381       .  A
C466        H471   1.085       .  S
C467       C2372   1.422       .  A
C467        O472   1.370   1_655  S
C468        C469   1.385       .  A
C468       C2371   1.415       .  A
C469        C470   1.385       .  A
C469        H473   1.083       .  S
C470        O474   1.371       .  S
O472        H476   0.993       .  S
O474        H475   0.992       .  S
O477        C504   1.259       .  A
O477       Mn503   2.014   1_455  S
C478       O2415   1.225       .  A
C478       O2412   1.254       .  A
C478        C944   1.432       .  S
O479      Mn1914   2.110   1_556  S
O479      Mn3353   2.120   1_545  S
O479      Mn1453   2.089   1_645  S
O479       Mn503   2.111       .  S
O480        C490   1.275       .  A
O480       Mn514   2.215       .  S
O481       C1456   1.285       .  A
O481      Mn2401   2.115   1_455  S
O482        C509   1.267       .  A
O482       Mn501   2.231       .  S
O483       Mn503   1.980   1_455  S
O483        C499   1.213       .  S
C484        O487   1.232       .  A
C484        C836   1.514       .  S
C484        O510   1.267       .  S
O485       Mn505   2.157       .  S
O485      Mn1438   2.093       .  S
O485      Mn1929   2.097       .  S
Mn486       O515   2.009       .  S
Mn486      O1907   2.115       .  S
Mn486      O1437   2.091   1_545  S
Mn486      O2396   2.158       .  S
O488        C490   1.237       .  A
O488       Mn495   2.025   1_545  S
C489        O515   1.245   1_565  A
C489        C893   1.484       .  S
C489       O1454   1.247       .  S
C490        C881   1.516       .  S
O491       C1468   1.251   1_545  A
O492      Mn2390   2.151   1_455  S
O492       Mn495   2.157   1_545  S
O492       Mn514   2.071       .  S
O492       Mn977   2.188   1_545  S
O493       Mn497   1.964       .  S
O493       Mn519   1.992       .  S
O493        C516   1.222       .  S
C494        O520   1.136       .  A
C494       C2833   1.837       .  S
Mn495       O508   2.143   1_465  S
Mn495      O1462   1.983       .  S
Mn495      O3358   1.990   1_455  S
O496       Mn519   2.235       .  S
Mn497      O2385   2.108       .  S
Mn497      O1465   2.166       .  S
Mn497      O3335   2.129       .  S
Mn497       O507   2.060       .  S
O498        C500   1.263       .  A
O498      Mn2407   2.026       .  S
C499        O517   1.262       .  A
C499        C845   1.456       .  S
C500        O513   1.286       .  A
C500        C908   1.486       .  S
Mn501      O1469   2.173       .  S
Mn501      O1431   2.095   1_455  S
Mn501      O1913   2.093   1_456  S
Mn501       O968   2.196   1_556  S
O502      Mn3351   1.983       .  S
O502       Mn505   1.919       .  S
O502       C1441   1.246       .  S
Mn503      O2402   2.015       .  S
Mn503       O521   1.905   1_556  S
C504       O1433   1.284       .  A
C504        C872   1.457       .  S
Mn505       O512   2.162       .  S
Mn505       O520   1.952       .  S
Mn505      O2414   2.107       .  S
C506        O512   1.276       .  A
C506        C812   1.463       .  S
O507       Mn519   2.000       .  S
O507       C2413   1.216       .  S
O508       C2382   1.255       .  A
C509        C917   1.570       .  S
C509       O2411   1.218   1_455  S
O510      Mn1447   1.993       .  S
O510      Mn2409   2.043   1_455  S
O511       C2382   1.225       .  A
O511       Mn514   2.001   1_655  S
O513      Mn1449   2.161   1_545  S
C516       O1443   1.253       .  A
C516        C857   1.481       .  S
O517      Mn1453   2.130   1_545  S
O518        C523   1.246       .  A
Mn519       O522   1.958       .  S
O521       C2427   1.215       .  S
C523       O2425   1.219       .  S
O524        C551   1.277       .  A
O524       Mn550   2.086   1_455  S
C525       O2462   1.237       .  A
C525       O2459   1.267       .  A
C525        C941   1.441       .  S
O526       Mn533   2.096       .  S
O526       Mn544   2.109       .  S
O526      Mn2452   2.068       .  S
O526      Mn2454   2.155       .  S
O527        C537   1.289       .  A
O527       Mn561   2.224   1_455  S
O528        C551   1.282       .  A
O528      Mn2448   2.094   1_455  S
O529        C556   1.297       .  A
O529       Mn548   2.306       .  S
O530       Mn561   1.969   1_455  S
O530       Mn550   2.019   1_455  S
O530        C546   1.240       .  S
C531        O534   1.238       .  A
C531        C749   1.494       .  S
C531        O557   1.260       .  S
O532       Mn552   2.097       .  S
O532       Mn533   2.058       .  S
O532       Mn566   2.068       .  S
O532      Mn2452   2.202       .  S
Mn533       O562   1.973       .  S
Mn533       O538   2.083       .  S
Mn533       O565   2.016       .  S
Mn533      O2443   2.109       .  S
O534       Mn548   2.013       .  S
O535        C537   1.246       .  A
O535       Mn542   2.012       .  S
C536        O562   1.240       .  A
C536        C761   1.489       .  S
C536        O549   1.251       .  S
C537        C776   1.490       .  S
O538        C563   1.248       .  A
O539      Mn2437   2.111       .  S
O539       Mn542   2.163   1_655  S
O539       Mn561   2.082       .  S
O539       Mn548   2.144   1_655  S
O540       Mn544   1.946       .  S
O540       Mn566   2.082       .  S
O540        C563   1.222       .  S
C541       O2471   1.201   1_655  A
C541       O2447   1.285       .  A
C541        C932   1.598       .  S
Mn542       O555   2.110   1_455  S
Mn542       O557   1.994       .  S
Mn542      O2453   1.982   1_455  S
O543       C2445   1.301       .  A
O543       Mn566   2.405       .  S
Mn544      O2432   2.114       .  S
Mn544       O560   2.167       .  S
Mn544       O554   1.990       .  S
O545        C547   1.257       .  A
O545      Mn2454   2.014       .  S
C546        O564   1.276       .  A
C546        C737   1.525       .  S
C547        O560   1.286       .  A
C547        C905   1.484       .  S
Mn548       O564   2.153       .  S
Mn548      O2430   2.069   1_455  S
Mn548      O2436   2.187   1_455  S
O549      Mn2446   1.972       .  S
O549       Mn552   1.954       .  S
Mn550      O2449   2.015       .  S
Mn550      O2430   2.150       .  S
Mn550      O2472   2.003       .  S
C551        C788   1.472       .  S
Mn552       O559   2.185       .  S
Mn552       O567   2.014       .  S
Mn552      O2461   1.954       .  S
C553        O559   1.272       .  A
C553        O569   1.249       .  A
C553        C728   1.451       .  S
O554       Mn566   2.057       .  S
O554       C2460   1.207       .  S
O555       C2429   1.267       .  A
C556        C920   1.569       .  S
C556       O2458   1.206   1_455  S
O557      Mn2456   1.945   1_455  S
O558       C2429   1.235       .  A
O558       Mn561   2.047       .  S
Mn561      O2472   2.046       .  S
C563        C797   1.469       .  S
O565        C570   1.236       .  A
Mn566       O569   2.011       .  S
O567       C2445   1.186       .  A
O568      Mn2454   1.999       .  S
O568      Mn2465   2.041       .  S
O568        C570   1.254       .  S
C570        C713   1.534       .  S
O571        C598   1.282       .  A
O571       Mn597   2.127       .  S
C572        O605   1.246       .  A
C572        O602   1.273   1_565  A
C572        C896   1.462       .  S
O573       Mn580   2.087   1_545  S
O573       Mn591   2.061       .  S
O573       Mn595   2.103       .  S
O573       Mn597   2.098       .  S
O574        C584   1.286       .  A
O574       Mn608   2.192       .  S
O575        C598   1.280       .  A
O575       Mn591   2.123       .  S
O576        C603   1.270       .  A
O576       Mn595   2.211       .  S
O577       Mn608   1.936       .  S
O577       Mn597   1.965       .  S
O577        C593   1.208       .  S
C578        O581   1.241       .  A
C578        C740   1.564       .  S
C578        O604   1.279       .  S
O579       Mn599   2.112       .  S
O579       Mn580   2.050   1_545  S
O579      Mn1565   2.120   1_545  S
O579       Mn595   2.252       .  S
Mn580      O1561   2.004       .  S
Mn580      O1537   2.149       .  S
Mn580      O1564   1.976       .  S
Mn580       O586   2.158   1_565  S
O581       Mn595   2.040       .  S
O582        C584   1.251       .  A
O582       Mn589   2.025       .  S
C583        O609   1.253       .  A
C583        C677   1.474       .  S
C583       O1548   1.246       .  S
C584        C665   1.484       .  S
O585        C610   1.265       .  A
O585      Mn1532   2.188       .  S
O586       Mn589   2.129       .  S
O586       Mn608   2.102       .  S
O586       Mn595   2.131       .  S
O587      Mn1543   1.988       .  S
O587       Mn613   2.038       .  S
O587        C610   1.211       .  S
C588        O614   1.217       .  A
C588        O590   1.276   1_545  A
C588        C884   1.492       .  S
Mn589       O602   2.159       .  S
Mn589       O604   2.068       .  S
Mn589       O596   1.970   1_545  S
O590      Mn1565   2.247       .  S
Mn591      O1559   2.102   1_545  S
Mn591      O1539   1.994   1_545  S
Mn591       O601   1.917       .  S
O592        C594   1.266       .  A
O592       Mn597   2.066   1_565  S
C593        O611   1.286       .  A
C593        C716   1.533       .  S
C594       O1559   1.273       .  A
C594       C1812   1.462       .  S
Mn595       O611   2.240       .  S
O596       Mn599   1.948   1_565  S
O596       C1535   1.242       .  S
Mn597       O615   1.997   1_545  S
C598        C701   1.494       .  S
Mn599      O1558   2.148   1_545  S
Mn599       O614   1.923       .  S
Mn599       O604   1.981       .  S
C600        O606   1.276       .  A
C600        O616   1.280       .  A
C600        C752   1.482       .  S
O601      Mn1565   1.970   1_545  S
O601        C603   1.183       .  S
C603        C869   1.472       .  S
O605       Mn608   2.045   1_565  S
O606      Mn1551   2.116       .  S
O607       C1546   1.275       .  A
O607      Mn1543   2.119       .  S
Mn608       O615   1.985   1_545  S
O609      Mn1532   2.004       .  S
C610        C692   1.536       .  S
O612       C1569   1.227       .  A
O612      Mn1532   1.984       .  S
Mn613      O1542   2.237       .  S
Mn613       O616   2.084       .  S
Mn613      O1531   2.089       .  S
Mn613      O1553   1.974       .  S
O615        C617   1.230       .  S
C617       O1564   1.225       .  A
C617       C1677   1.469       .  S
O618        C645   1.275       .  A
O618       Mn644   2.125       .  S
C619        O652   1.259       .  A
C619        O649   1.278   1_554  A
C619        C848   1.479       .  S
O620       Mn642   2.112   1_554  S
O620       Mn644   2.114   1_554  S
O621        C631   1.280       .  A
O621       Mn655   2.190       .  S
O622        C645   1.266       .  A
O623        C650   1.266       .  A
O623       Mn642   2.233       .  S
O624       Mn655   1.882       .  S
O624       Mn644   1.895       .  S
O624        C640   1.197       .  S
C625        O628   1.239       .  A
C625        C689   1.533       .  S
C625        O651   1.264       .  S
O626       Mn646   2.101       .  S
O626       Mn627   2.070       .  S
O626       Mn660   2.100       .  S
Mn627       O656   2.081       .  S
Mn627       O632   2.167       .  S
Mn627       O659   2.021       .  S
O628       Mn642   1.989       .  S
O629        C631   1.238       .  A
O629       Mn636   2.027       .  S
C630        O656   1.267       .  A
C630        C773   1.506       .  S
C630        O643   1.247       .  S
C631        C785   1.464       .  S
O632        C657   1.266       .  A
O633       Mn636   2.093       .  S
O633       Mn655   2.125       .  S
O633       Mn642   2.156       .  S
O634       Mn638   1.934       .  S
O634       Mn660   2.009       .  S
O634        C657   1.203       .  S
C635        O637   1.287       .  A
Mn636       O649   2.138       .  S
Mn636       O651   2.021       .  S
Mn638       O654   2.156       .  S
O639       Mn644   2.023   1_554  S
C640        O658   1.275       .  A
C640        C704   1.494       .  S
C641        O654   1.279       .  A
C641        C824   1.481       .  S
Mn642       O658   2.223       .  S
O643       Mn646   2.019       .  S
Mn644       O662   1.982   1_556  S
C645        C800   1.498       .  S
Mn646       O653   2.185       .  S
Mn646       O661   2.017       .  S
C647        O653   1.290       .  A
C647        O663   1.261       .  A
C647        C680   1.475       .  S
O648        C650   1.181       .  S
C650        C809   1.474       .  S
O652       Mn655   2.044   1_554  S
Mn655       O662   2.044   1_556  S
C657        C764   1.487       .  S
O659        C664   1.242       .  A
Mn660       O663   2.022       .  S
C664        C668   1.476       .  S
C665        C666   1.394       .  A
C665        C670   1.425       .  A
C666        C667   1.405       .  A
C666        H671   1.084       .  S
C667        C668   1.416       .  A
C667        O672   1.369       .  S
C668        C669   1.388       .  A
C669        C670   1.400       .  A
C669        H673   1.084       .  S
C670        O674   1.368       .  S
O672        H676   0.989       .  S
O674        H675   0.993       .  S
C677        C678   1.407       .  A
C677        C682   1.399       .  A
C678        C679   1.394       .  A
C678        H683   1.084       .  S
C679        C680   1.410       .  A
C679        O684   1.374       .  S
C680        C681   1.398       .  A
C681        C682   1.404       .  A
C681        H685   1.073       .  S
C682        O686   1.367       .  S
O684        H688   0.993       .  S
O686        H687   0.992       .  S
C689        C690   1.423       .  A
C689        C694   1.406       .  A
C690        C691   1.415       .  A
C690        H695   1.084       .  S
C691        C692   1.408       .  A
C691        O696   1.371       .  S
C692        C693   1.426       .  A
C693        C694   1.436       .  A
C693        H697   1.083       .  S
C694        O698   1.370       .  S
O696        H700   0.991       .  S
O698        H699   0.991       .  S
C701        C702   1.416       .  A
C701        C706   1.401       .  A
C702        C703   1.418       .  A
C702        H707   1.083       .  S
C703        C704   1.406       .  A
C703        O708   1.369       .  S
C704        C705   1.417       .  A
C705        C706   1.398       .  A
C705        H709   1.083       .  S
C706        O710   1.372       .  S
O708        H712   0.991       .  S
O710        H711   0.992       .  S
C713        C714   1.431       .  A
C713        C718   1.406       .  A
C714        C715   1.420       .  A
C714        H719   1.082       .  S
C715        C716   1.404       .  A
C715        O720   1.371       .  S
C716        C717   1.431       .  A
C717        C718   1.421       .  A
C717        H721   1.083       .  S
C718        O722   1.370       .  S
O720        H724   0.992       .  S
O722        H723   0.992       .  S
C725       C1569   1.463       .  S
C725        C726   1.391       .  A
C725        C730   1.418       .  A
C726        C727   1.392       .  A
C726        H731   1.084       .  S
C727        C728   1.419       .  A
C727        O732   1.373       .  S
C728        C729   1.394       .  A
C729        C730   1.389       .  A
C729        H733   1.085       .  S
C730        O734   1.371       .  S
O732        H736   0.993       .  S
O734        H735   0.992       .  S
C737        C738   1.382       .  A
C737        C742   1.420       .  A
C738        C739   1.409       .  A
C738        H743   1.085       .  S
C739        C740   1.429       .  A
C739        O744   1.353       .  S
C740        C741   1.425       .  A
C741        C742   1.445       .  A
C741        H745   1.083       .  S
C742        O746   1.370       .  S
O744        H748   0.994       .  S
O746        H747   0.991       .  S
C749        C750   1.402       .  A
C749        C754   1.400       .  A
C750        C751   1.373       .  A
C750        H755   1.052       .  S
C751        C752   1.393       .  A
C751        O756   1.373       .  S
C752        C753   1.418       .  A
C753        C754   1.416       .  A
C753        H757   1.065       .  S
C754        O758   1.369       .  S
O756        H760   0.992       .  S
O758        H759   0.991       .  S
C761        C762   1.425       .  A
C761        C766   1.393       .  A
C762        C763   1.403       .  A
C762        H767   1.083       .  S
C763        C764   1.396       .  A
C763        O768   1.374       .  S
C764        C765   1.417       .  A
C765        C766   1.398       .  A
C765        H769   1.075       .  S
C766        O770   1.370       .  S
O768        H772   0.992       .  S
O770        H771   0.992       .  S
C773        C774   1.404       .  A
C773        C778   1.421       .  A
C774        C775   1.408       .  A
C774        H779   1.083       .  S
C775        C776   1.418       .  A
C775        O780   1.372       .  S
C776        C777   1.397       .  A
C777        C778   1.410       .  A
C777        H781   1.073       .  S
C778        O782   1.372       .  S
O780        H784   0.992       .  S
O782        H783   0.992       .  S
C785        C786   1.391       .  A
C785        C790   1.416       .  A
C786        C787   1.403       .  A
C786        H791   1.079       .  S
C787        C788   1.413       .  A
C787        O792   1.370       .  S
C788        C789   1.396       .  A
C789        C790   1.387       .  A
C789        H793   1.084       .  S
C790        O794   1.375       .  S
O792        H796   0.992       .  S
O794        H795   0.992       .  S
C797        C798   1.402       .  A
C797        C802   1.398       .  A
C798        C799   1.404       .  A
C798        H803   1.083       .  S
C799        C800   1.409       .  A
C799        O804   1.368       .  S
C800        C801   1.411       .  A
C801        C802   1.395       .  A
C801        H805   1.072       .  S
C802        O806   1.372       .  S
O804        H808   0.993       .  S
O806        H807   0.992       .  S
C809        C810   1.417       .  A
C809        C814   1.416       .  A
C810        C811   1.419   1_556  A
C810        H815   1.083       .  S
C811        O816   1.370       .  S
C812        C813   1.392       .  A
C813        H817   1.087       .  S
C814        O818   1.365       .  S
O816        H820   0.991       .  S
C821        C826   1.410       .  A
C822        C823   1.416       .  A
C822        H827   1.083   1_554  S
C823        O828   1.373       .  S
C824        C825   1.400       .  A
C825        C826   1.401       .  A
C825        H829   1.076       .  S
C826        O830   1.377       .  S
O828        H832   0.990   1_554  S
O830        H831   0.992       .  S
C833        C834   1.404       .  A
C834        C835   1.429       .  A
C834        H839   1.083       .  S
C835        C836   1.434       .  A
C835        O840   1.363       .  S
C836        C837   1.393       .  A
C838        O842   1.371       .  S
O840        H844   0.991       .  S
O842        H843   0.992       .  S
C845        C846   1.398       .  A
C846        C847   1.391       .  A
C846        H851   1.084       .  S
C847        C848   1.408   1_556  A
C847        O852   1.376       .  S
C849        C850   1.408       .  A
C849        H853   1.083       .  S
C850        O854   1.371       .  S
O852        H856   0.992       .  S
O854        H855   0.992       .  S
C857        C858   1.406       .  A
C857        C862   1.410       .  A
C858        C859   1.396       .  A
C858        H863   1.084       .  S
C859        C860   1.407       .  A
C859        O864   1.372       .  S
C860       C1546   1.471       .  S
C860        C861   1.405       .  A
C861        C862   1.402       .  A
C861        H865   1.084       .  S
C862        O866   1.372       .  S
O864        H868   0.992       .  S
O866        H867   0.991       .  S
C869        C870   1.408       .  A
C869        C874   1.387       .  A
C870        C871   1.363       .  A
C870        H875   1.069       .  S
C871        C872   1.388       .  A
C871       O1828   1.372   1_545  S
C872        C873   1.422       .  A
C873        C874   1.405       .  A
C873        H877   1.084       .  S
C874        O878   1.361       .  S
O876       C1823   1.374       .  S
O876        H880   0.992       .  S
O878        H879   0.993       .  S
C881        C882   1.419   1_545  A
C881        C886   1.408       .  A
C882        C883   1.416       .  A
C882       H1839   1.081       .  S
C883        C884   1.404   1_565  A
C883       O1840   1.376       .  S
C884        C885   1.420       .  A
C885        C886   1.413       .  A
C885        H889   1.079       .  S
C886        O890   1.371       .  S
H887       C1834   1.083       .  S
O888       C1835   1.376       .  S
O888        H892   0.990       .  S
O890        H891   0.992       .  S
C893       C1846   1.413       .  A
C893        C898   1.402   1_565  A
C894       C1845   1.413       .  A
C894        C895   1.403       .  A
C894        H899   1.065       .  S
C895       C1848   1.398       .  A
C895        O900   1.372       .  S
C896       C1847   1.399       .  A
C896        C897   1.394   1_565  A
C897        C898   1.398       .  A
C897        H901   1.077       .  S
C898        O902   1.367       .  S
O900        H904   0.992       .  S
O902        H903   0.991       .  S
C905        C906   1.414       .  A
C905        C910   1.397       .  A
C906        C907   1.400       .  A
C906        H911   1.071       .  S
C907        C908   1.397       .  A
C907        O912   1.371       .  S
C908        C909   1.418       .  A
C909        C910   1.404       .  A
C909        H913   1.080       .  S
C910        O914   1.369       .  S
O912        H916   0.992       .  S
O914        H915   0.992       .  S
C917        C918   1.412       .  A
C917        C922   1.432       .  A
C918       C2823   1.430       .  A
C918       H2827   1.083       .  S
C919       C2822   1.426       .  A
C919       C2824   1.427       .  A
C919        O924   1.372       .  S
C920       C2823   1.427       .  A
C920        C921   1.425       .  A
C921        C922   1.452       .  A
C921        H925   1.083       .  S
C922        O926   1.370       .  S
H923       C2822   1.083       .  S
O924        H928   0.992       .  S
O926        H927   0.991       .  S
C929       C2398   1.852       .  S
C929       C2834   1.571       .  A
C929        C934   1.553   1_655  A
C930       C2833   1.549       .  A
C930        C931   1.453       .  A
C930        H935   1.080       .  S
C931       C2836   1.434       .  A
C931        O936   1.365       .  S
C932       C2835   1.429       .  A
C932        C933   1.416   1_655  A
C933        C934   1.427       .  A
C933        H937   1.070       .  S
C934        O938   1.369       .  S
O936        H940   0.994       .  S
O938        H939   0.991       .  S
C941       C2846   1.386       .  A
C941        C946   1.416       .  A
C942       C2845   1.386       .  A
C942        C943   1.374       .  A
C942        H947   1.083       .  S
C943       C2848   1.416       .  A
C943        O948   1.372   1_655  S
C944       C2847   1.416       .  A
C944        C945   1.386       .  A
C945        C946   1.386       .  A
C945        H949   1.083       .  S
C946        O950   1.371       .  S
O948        H952   0.992       .  S
O950        H951   0.992       .  S
O953        C980   1.260       .  A
O953       Mn979   2.015   1_455  S
C954       O2891   1.225       .  A
C954       O2888   1.255       .  A
C954       C1420   1.432       .  S
O955      Mn3342   2.112       .  S
O955      Mn1925   2.120       .  S
O955       Mn979   2.110       .  S
O956        C966   1.273       .  A
O956       Mn990   2.215       .  S
O957      Mn2877   2.110   1_445  S
O958        C985   1.263       .  A
O958       Mn977   2.214       .  S
O959      Mn1466   1.957       .  S
O959       Mn979   1.980   1_455  S
O959        C975   1.214       .  S
C960        O963   1.232       .  A
C960       C1312   1.514       .  S
C960        O986   1.267       .  S
O961       Mn981   2.160       .  S
O961      Mn1471   2.059   1_554  S
O961      Mn3357   2.097   1_554  S
Mn962       O991   2.006       .  S
Mn962      O1443   2.096   1_554  S
Mn962      O1470   2.090       .  S
Mn962      O3335   2.113   1_554  S
Mn962      O2872   2.158       .  S
O963      Mn1453   1.963   1_554  S
O964        C966   1.237       .  A
O964       Mn971   2.025       .  S
C965        O991   1.245       .  A
C965       C1369   1.484       .  S
C966       C1357   1.514       .  S
O967      Mn1438   2.084       .  S
O968      Mn2866   2.152   1_455  S
O968       Mn971   2.154       .  S
O968       Mn990   2.062       .  S
O969       Mn973   1.961       .  S
O969       Mn995   1.991       .  S
O969        C992   1.221       .  S
C970        O996   1.139       .  A
C970       O1448   1.321   1_554  A
C970       C3309   1.831       .  S
Mn971       O984   2.164   1_455  S
Mn971      O1930   1.987   1_455  S
O972       C1446   1.320       .  A
O972       Mn995   2.239       .  S
Mn973      O2861   2.106   1_565  S
Mn973      O1907   2.128   1_565  S
Mn973       O983   2.062       .  S
O974        C976   1.263       .  A
O974      Mn2883   2.025       .  S
C975        O993   1.262       .  A
C975       C1321   1.456       .  S
C976        O989   1.287       .  A
C976       C1384   1.487       .  S
Mn977      O1439   1.952       .  S
Mn977      O3341   2.093   1_455  S
O978      Mn1923   1.985       .  S
O978       Mn981   1.923       .  S
Mn979      O2878   2.012       .  S
Mn979       O997   1.907       .  S
C980       C1348   1.454       .  S
Mn981       O988   2.168       .  S
Mn981       O996   1.955       .  S
Mn981      O2890   2.108       .  S
C982        O988   1.277       .  A
C982       O1474   1.246   1_554  A
C982       C1288   1.464       .  S
O983       Mn995   2.002       .  S
O983       C2889   1.216       .  S
O984       C2858   1.259       .  A
C985       C1393   1.562       .  S
C985       O2887   1.218   1_455  S
O986      Mn2885   2.042   1_455  S
O987       C2858   1.222       .  A
O987       Mn990   1.998   1_655  S
Mn990      O1435   1.934   1_554  S
Mn990      O1473   1.939   1_455  S
C992       C1333   1.479       .  S
O994        C999   1.246       .  A
O994      Mn1438   2.097       .  S
Mn995       O998   1.955       .  S
Mn995      O1437   2.060       .  S
O997      Mn1466   1.939   1_655  S
O997       C2903   1.216       .  S
O998       C1458   1.247       .  A
C999       C1773   1.500       .  S
C999       O2901   1.219       .  S
O1000      C1027   1.278       .  A
O1000     Mn1026   2.089   1_455  S
C1001      O2938   1.238       .  A
C1001      O2935   1.268       .  A
C1001      C1417   1.441       .  S
O1002     Mn1009   2.098       .  S
O1002     Mn1020   2.108       .  S
O1002     Mn2928   2.068       .  S
O1002     Mn2930   2.155       .  S
O1003      C1013   1.288       .  A
O1003     Mn1037   2.223   1_455  S
O1004      C1027   1.282       .  A
O1004     Mn2924   2.095   1_455  S
O1005      C1032   1.296       .  A
O1005     Mn1024   2.298       .  S
O1006     Mn1037   1.970   1_455  S
O1006     Mn1026   2.019   1_455  S
O1006      C1022   1.239       .  S
C1007      O1010   1.239       .  A
C1007      C1225   1.500       .  S
C1007      O1033   1.261       .  S
O1008     Mn1028   2.097       .  S
O1008     Mn1009   2.059       .  S
O1008     Mn1042   2.066       .  S
O1008     Mn2928   2.202       .  S
Mn1009     O1038   1.976       .  S
Mn1009     O1014   2.082       .  S
Mn1009     O1041   2.017       .  S
Mn1009     O2919   2.108       .  S
O1010     Mn1024   2.017       .  S
O1011      C1013   1.246       .  A
O1011     Mn1018   2.014   1_455  S
C1012      O1038   1.241       .  A
C1012      C1237   1.491       .  S
C1012      O1025   1.251       .  S
C1013      C1252   1.489       .  S
O1014      C1039   1.248       .  A
O1015     Mn2913   2.110       .  S
O1015     Mn1018   2.158       .  S
O1015     Mn1037   2.082       .  S
O1015     Mn1024   2.141   1_655  S
O1016     Mn1020   1.947       .  S
O1016     Mn1042   2.084       .  S
O1016      C1039   1.222       .  S
C1017      O2947   1.201   1_655  A
C1017      O2923   1.285       .  A
C1017      C1408   1.598       .  S
Mn1018     O1031   2.113       .  S
Mn1018     O1033   2.000   1_655  S
Mn1018     O2929   1.983       .  S
O1019      C2921   1.301       .  A
O1019     Mn1042   2.404       .  S
Mn1020     O2908   2.118       .  S
Mn1020     O1036   2.169       .  S
Mn1020     O1030   1.988       .  S
O1021      C1023   1.257       .  A
O1021     Mn2930   2.013       .  S
C1022      O1040   1.276       .  A
C1022      C1213   1.524       .  S
C1023      O1036   1.286       .  A
C1023      C1381   1.485       .  S
Mn1024     O1040   2.155       .  S
Mn1024     O2906   2.070   1_455  S
Mn1024     O2912   2.189   1_455  S
O1025     Mn2922   1.972       .  S
O1025     Mn1028   1.954       .  S
Mn1026     O2925   2.015       .  S
Mn1026     O2906   2.148       .  S
Mn1026     O2948   2.003       .  S
C1027      C1264   1.473       .  S
Mn1028     O1035   2.189       .  S
Mn1028     O1043   2.018       .  S
Mn1028     O2937   1.955       .  S
C1029      O1035   1.273       .  A
C1029      O1045   1.250       .  A
C1029      C1204   1.452       .  S
O1030     Mn1042   2.060       .  S
O1030      C2936   1.207       .  S
O1031      C2905   1.268       .  A
C1032      C1396   1.563       .  S
C1032      O2934   1.205   1_455  S
O1033     Mn2932   1.947   1_455  S
O1034      C2905   1.235       .  A
O1034     Mn1037   2.046       .  S
Mn1037     O2948   2.044       .  S
C1039      C1273   1.468       .  S
O1041      C1046   1.236       .  A
Mn1042     O1045   2.013       .  S
O1043      C2921   1.187       .  A
O1044     Mn2930   1.997       .  S
O1044     Mn2941   2.039       .  S
O1044      C1046   1.254       .  S
C1046      C1189   1.533       .  S
O1047      C1074   1.281       .  A
O1047     Mn1073   2.124       .  S
C1048      O1081   1.246       .  A
C1048      O1078   1.274       .  A
C1048      C1372   1.464       .  S
O1049     Mn1056   2.086       .  S
O1049     Mn1067   2.053       .  S
O1049     Mn1071   2.107       .  S
O1049     Mn1073   2.097       .  S
O1050      C1060   1.286       .  A
O1050     Mn1084   2.191       .  S
O1051      C1074   1.278       .  A
O1051     Mn1067   2.119       .  S
O1052      C1079   1.268       .  A
O1052     Mn1071   2.215       .  S
O1053     Mn1084   1.937       .  S
O1053     Mn1073   1.966       .  S
O1053      C1069   1.209       .  S
C1054      O1057   1.242       .  A
C1054      C1216   1.562       .  S
C1054      O1080   1.278       .  S
O1055     Mn1075   2.112       .  S
O1055     Mn1056   2.055       .  S
O1055     Mn1071   2.255       .  S
Mn1056     O1062   2.157       .  S
O1057     Mn1071   2.041       .  S
O1058      C1060   1.252       .  A
O1058     Mn1065   2.026       .  S
C1059      O1085   1.252       .  A
C1059      C1153   1.474       .  S
C1060      C1141   1.483       .  S
O1061      C1086   1.265       .  A
O1062     Mn1065   2.128       .  S
O1062     Mn1084   2.104       .  S
O1062     Mn1071   2.131       .  S
O1063     Mn1089   2.036       .  S
O1063      C1086   1.212       .  S
C1064      O1090   1.219       .  A
C1064      O1066   1.276       .  A
C1064      C1360   1.490       .  S
Mn1065     O1078   2.161       .  S
Mn1065     O1080   2.065       .  S
Mn1065     O1072   1.975       .  S
Mn1067     O1077   1.913       .  S
O1068      C1070   1.267       .  A
O1068     Mn1073   2.069       .  S
C1069      O1087   1.286       .  A
C1069      C1192   1.533       .  S
Mn1071     O1087   2.238       .  S
O1072     Mn1075   1.954       .  S
Mn1073     O1091   1.995       .  S
C1074      C1177   1.491       .  S
Mn1075     O1090   1.930       .  S
Mn1075     O1080   1.980       .  S
C1076      O1082   1.276       .  A
C1076      O1092   1.283       .  A
C1076      C1228   1.486       .  S
O1077      C1079   1.180       .  S
C1079      C1345   1.471       .  S
O1081     Mn1084   2.045       .  S
Mn1084     O1091   1.986       .  S
C1086      C1168   1.533       .  S
Mn1089     O1092   2.090       .  S
O1091      C1093   1.229       .  S
O1094      C1121   1.275       .  A
O1094     Mn1120   2.125       .  S
C1095      O1128   1.259       .  A
C1095      O1125   1.278       .  A
C1095      C1324   1.480       .  S
O1096     Mn1579   2.156       .  S
O1096     Mn1590   2.046       .  S
O1096     Mn1118   2.113       .  S
O1096     Mn1120   2.114       .  S
O1097      C1107   1.281       .  A
O1097     Mn1131   2.194       .  S
O1098      C1121   1.265       .  A
O1098     Mn1590   2.080       .  S
O1099      C1126   1.266       .  A
O1099     Mn1118   2.238       .  S
O1100     Mn1131   1.882       .  S
O1100     Mn1120   1.894       .  S
O1100      C1116   1.197       .  S
C1101      O1104   1.240       .  A
C1101      C1165   1.530       .  S
C1101      O1127   1.263       .  S
O1102     Mn1122   2.098       .  S
O1102     Mn1103   2.068       .  S
O1102     Mn1136   2.107       .  S
O1102     Mn1594   2.225   1_554  S
Mn1103     O1132   2.081       .  S
Mn1103     O1108   2.168       .  S
Mn1103     O1135   2.022       .  S
Mn1103     O1572   2.152       .  S
Mn1103     O1585   2.132   1_554  S
O1104     Mn1118   1.989       .  S
O1105      C1107   1.238       .  A
O1105     Mn1112   2.027       .  S
C1106      O1132   1.265       .  A
C1106      C1249   1.506       .  S
C1106      O1119   1.245       .  S
C1107      C1261   1.466       .  S
O1108      C1133   1.266       .  A
O1109     Mn1579   2.117       .  S
O1109     Mn1112   2.093       .  S
O1109     Mn1131   2.126       .  S
O1109     Mn1118   2.161       .  S
O1110     Mn1114   1.933       .  S
O1110     Mn1136   2.011       .  S
O1110      C1133   1.203       .  S
C1111      O1613   1.242       .  A
C1111      O1113   1.287       .  A
C1111      C1785   1.541       .  S
Mn1112     O1125   2.137       .  S
Mn1112     O1127   2.016       .  S
Mn1112     O1595   1.972       .  S
O1113     Mn1612   2.255       .  S
Mn1114     O1574   2.081   1_554  S
Mn1114     O1130   2.159       .  S
Mn1114     O1572   2.044       .  S
Mn1114     O1600   1.962   1_554  S
O1115      C1593   1.259       .  A
O1115     Mn1120   2.024       .  S
C1116      O1134   1.274       .  A
C1116      C1180   1.492       .  S
C1117      O1591   1.261       .  A
C1117      O1130   1.279       .  A
C1117      C1300   1.483       .  S
Mn1118     O1134   2.220       .  S
Mn1118     O1578   2.219       .  S
O1119     Mn1588   1.971   1_554  S
O1119     Mn1122   2.017       .  S
Mn1120     O1138   1.984       .  S
C1121      C1276   1.498       .  S
Mn1122     O1129   2.196       .  S
Mn1122     O1137   2.020   1_554  S
Mn1122     O1603   1.980   1_554  S
C1123      O1129   1.292       .  A
C1123      O1139   1.261       .  A
C1123      C1156   1.481       .  S
O1124     Mn1590   1.966       .  S
O1124     Mn1612   1.930       .  S
O1124      C1126   1.179       .  S
C1126      C1285   1.476       .  S
O1127     Mn1598   1.991       .  S
O1128     Mn1131   2.045       .  S
Mn1131     O1138   2.048       .  S
C1133      C1240   1.489       .  S
O1135      C1140   1.241       .  A
Mn1136     O1589   2.268       .  S
Mn1136     O1139   2.021       .  S
Mn1136     O1600   1.928   1_554  S
O1137      C1587   1.225   1_556  A
O1138      C1616   1.237       .  S
C1140      C1144   1.477       .  S
C1140      O1614   1.234       .  S
C1141      C1142   1.394       .  A
C1141      C1146   1.424       .  A
C1142      C1143   1.405       .  A
C1142      H1147   1.084       .  S
C1143      C1144   1.416       .  A
C1143      O1148   1.369       .  S
C1144      C1145   1.389       .  A
C1145      C1146   1.400       .  A
C1145      H1149   1.084       .  S
C1146      O1150   1.369       .  S
O1148      H1152   0.989       .  S
O1150      H1151   0.992       .  S
C1153      C1154   1.406       .  A
C1153      C1158   1.396       .  A
C1154      C1155   1.395       .  A
C1154      H1159   1.084       .  S
C1155      C1156   1.413       .  A
C1155      O1160   1.374       .  S
C1156      C1157   1.398       .  A
C1157      C1158   1.406       .  A
C1157      H1161   1.073       .  S
C1158      O1162   1.367       .  S
O1160      H1164   0.993       .  S
O1162      H1163   0.992       .  S
C1165      C1166   1.422       .  A
C1165      C1170   1.405       .  A
C1166      C1167   1.413       .  A
C1166      H1171   1.084       .  S
C1167      C1168   1.407       .  A
C1167      O1172   1.370       .  S
C1168      C1169   1.426       .  A
C1169      C1170   1.435       .  A
C1169      H1173   1.083       .  S
C1170      O1174   1.370       .  S
O1172      H1176   0.991       .  S
O1174      H1175   0.991       .  S
C1177      C1178   1.415       .  A
C1177      C1182   1.401       .  A
C1178      C1179   1.416       .  A
C1178      H1183   1.083       .  S
C1179      C1180   1.405       .  A
C1179      O1184   1.369       .  S
C1180      C1181   1.417       .  A
C1181      C1182   1.397       .  A
C1181      H1185   1.083       .  S
C1182      O1186   1.372       .  S
O1184      H1188   0.991       .  S
O1186      H1187   0.992       .  S
C1189      C1190   1.431       .  A
C1189      C1194   1.405       .  A
C1190      C1191   1.420       .  A
C1190      H1195   1.082       .  S
C1191      C1192   1.404       .  A
C1191      O1196   1.371       .  S
C1192      C1193   1.430       .  A
C1193      C1194   1.421       .  A
C1193      H1197   1.083       .  S
C1194      O1198   1.370       .  S
O1196      H1200   0.992       .  S
O1198      H1199   0.992       .  S
C1201      C1202   1.391       .  A
C1201      C1206   1.418       .  A
C1202      C1203   1.393       .  A
C1202      H1207   1.084       .  S
C1203      C1204   1.419       .  A
C1203      O1208   1.373       .  S
C1204      C1205   1.394       .  A
C1205      C1206   1.390       .  A
C1205      H1209   1.085       .  S
C1206      O1210   1.371       .  S
O1208      H1212   0.993       .  S
O1210      H1211   0.992       .  S
C1213      C1214   1.383       .  A
C1213      C1218   1.420       .  A
C1214      C1215   1.410       .  A
C1214      H1219   1.085       .  S
C1215      C1216   1.429       .  A
C1215      O1220   1.355       .  S
C1216      C1217   1.425       .  A
C1217      C1218   1.444       .  A
C1217      H1221   1.083       .  S
C1218      O1222   1.370       .  S
O1220      H1224   0.994       .  S
O1222      H1223   0.991       .  S
C1225      C1226   1.402       .  A
C1225      C1230   1.400       .  A
C1226      C1227   1.376       .  A
C1226      H1231   1.049       .  S
C1227      C1228   1.392       .  A
C1227      O1232   1.373       .  S
C1228      C1229   1.419       .  A
C1229      C1230   1.417       .  A
C1229      H1233   1.066       .  S
C1230      O1234   1.368       .  S
O1232      H1236   0.992       .  S
O1234      H1235   0.991       .  S
C1237      C1238   1.425       .  A
C1237      C1242   1.394       .  A
C1238      C1239   1.404       .  A
C1238      H1243   1.083       .  S
C1239      C1240   1.396       .  A
C1239      O1244   1.374       .  S
C1240      C1241   1.417       .  A
C1241      C1242   1.398       .  A
C1241      H1245   1.076       .  S
C1242      O1246   1.370       .  S
O1244      H1248   0.992       .  S
O1246      H1247   0.992       .  S
C1249      C1250   1.404       .  A
C1249      C1254   1.421       .  A
C1250      C1251   1.408       .  A
C1250      H1255   1.083       .  S
C1251      C1252   1.417       .  A
C1251      O1256   1.373       .  S
C1252      C1253   1.397       .  A
C1253      C1254   1.410       .  A
C1253      H1257   1.075       .  S
C1254      O1258   1.372       .  S
O1256      H1260   0.992       .  S
O1258      H1259   0.992       .  S
C1261      C1262   1.391       .  A
C1261      C1266   1.417       .  A
C1262      C1263   1.403       .  A
C1262      H1267   1.079       .  S
C1263      C1264   1.412       .  A
C1263      O1268   1.370       .  S
C1264      C1265   1.396       .  A
C1265      C1266   1.389       .  A
C1265      H1269   1.084       .  S
C1266      O1270   1.375       .  S
O1268      H1272   0.992       .  S
O1270      H1271   0.992       .  S
C1273      C1274   1.402       .  A
C1273      C1278   1.397       .  A
C1274      C1275   1.404       .  A
C1274      H1279   1.083       .  S
C1275      C1276   1.410       .  A
C1275      O1280   1.368       .  S
C1276      C1277   1.411       .  A
C1277      C1278   1.395       .  A
C1277      H1281   1.072       .  S
C1278      O1282   1.372       .  S
O1280      H1284   0.993       .  S
O1282      H1283   0.992       .  S
C1285      C1286   1.417       .  A
C1285      C1290   1.417       .  A
C1286      C1287   1.419       .  A
C1286      H1291   1.083       .  S
C1287      C1764   1.415       .  A
C1287      O1292   1.370       .  S
C1288      C1763   1.416       .  A
C1288      C1289   1.394       .  A
C1289      C1766   1.395   1_554  A
C1289      H1293   1.087       .  S
C1290      C1765   1.395       .  A
C1290      O1294   1.365       .  S
O1292      H1296   0.991       .  S
O1294      H1771   0.992       .  S
H1295      O1770   0.992       .  S
C1297      C1475   1.495       .  S
C1297      C1774   1.412       .  A
C1297      C1302   1.410       .  A
C1298      C1773   1.412       .  A
C1298      C1299   1.415       .  A
C1298      H1303   1.083       .  S
C1299      C1776   1.413       .  A
C1299      O1304   1.373       .  S
C1300      C1775   1.411       .  A
C1300      C1301   1.400       .  A
C1301      C1302   1.402       .  A
C1301      H1305   1.076       .  S
C1302      O1306   1.379       .  S
O1304      H1308   0.990       .  S
O1306      H1307   0.992       .  S
C1309      C1587   1.547       .  S
C1309      C1310   1.404       .  A
C1309      C1790   1.431       .  A
C1310      C1311   1.432       .  A
C1310      H1315   1.083       .  S
C1311      C1312   1.431       .  A
C1311      O1316   1.362       .  S
C1312      C1313   1.396       .  A
C1313      C1790   1.406       .  A
C1313      H1793   1.085       .  S
C1314      C1785   1.397       .  A
C1314      C1789   1.414       .  A
C1314      O1318   1.371       .  S
O1316      H1320   0.992       .  S
H1317      C1789   1.080       .  S
O1318      H1319   0.992       .  S
C1321      C1322   1.398       .  A
C1321      C1802   1.403       .  A
C1322      C1323   1.392       .  A
C1322      H1327   1.085       .  S
C1323      C1324   1.409       .  A
C1323      O1328   1.376       .  S
C1324      C1801   1.412       .  A
C1325      C1800   1.417       .  A
C1325      C1326   1.408       .  A
C1325      H1329   1.083       .  S
C1326      C1797   1.404   1_554  A
C1326      O1330   1.371       .  S
O1328      H1332   0.992       .  S
O1330      H1331   0.992       .  S
C1333      C1334   1.406       .  A
C1333      C1338   1.410       .  A
C1334      C1335   1.395       .  A
C1334      H1339   1.084       .  S
C1335      C1336   1.406       .  A
C1335      O1340   1.372       .  S
C1336      C1337   1.405       .  A
C1337      C1338   1.401       .  A
C1337      H1341   1.084   1_565  S
C1338      O1342   1.372   1_565  S
O1340      H1344   0.992       .  S
O1342      H1343   0.991       .  S
C1345      C1346   1.409       .  A
C1345      C1350   1.387       .  A
C1346      C1347   1.367       .  A
C1346      H1351   1.075       .  S
C1347      C1348   1.390       .  A
C1348      C1349   1.421       .  A
C1349      C1350   1.404       .  A
C1349      H1353   1.084       .  S
C1350      O1354   1.361       .  S
O1352      H1356   0.992       .  S
O1354      H1355   0.993       .  S
C1357      C1358   1.418       .  A
C1357      C1362   1.409       .  A
C1358      C1359   1.415       .  A
C1359      C1360   1.403       .  A
C1360      C1361   1.419       .  A
C1361      C1362   1.413       .  A
C1361      H1365   1.080       .  S
C1362      O1366   1.371       .  S
O1364      H1368   0.991       .  S
O1366      H1367   0.992       .  S
C1369      C1374   1.404       .  A
C1370      C1371   1.404       .  A
C1370      H1375   1.066       .  S
C1371      O1376   1.372       .  S
C1372      C1373   1.394       .  A
C1373      C1374   1.399       .  A
C1373      H1377   1.077       .  S
C1374      O1378   1.369       .  S
O1376      H1380   0.992       .  S
O1378      H1379   0.991       .  S
C1381      C1382   1.414       .  A
C1381      C1386   1.397       .  A
C1382      C1383   1.400       .  A
C1382      H1387   1.071       .  S
C1383      C1384   1.397       .  A
C1383      O1388   1.371       .  S
C1384      C1385   1.419       .  A
C1385      C1386   1.405       .  A
C1385      H1389   1.080       .  S
C1386      O1390   1.369       .  S
O1388      H1392   0.992       .  S
O1390      H1391   0.992       .  S
C1393      C1394   1.409       .  A
C1393      C1398   1.429       .  A
C1394      C3299   1.428       .  A
C1394      H3303   1.084       .  S
C1395      C3298   1.426       .  A
C1395      C3300   1.427       .  A
C1395      O1400   1.372       .  S
C1396      C3299   1.426       .  A
C1396      C1397   1.423       .  A
C1397      C1398   1.448       .  A
C1397      H1401   1.083       .  S
C1398      O1402   1.369       .  S
H1399      C3298   1.083       .  S
O1400      H1404   0.992       .  S
O1402      H1403   0.991       .  S
C1405      C2874   1.855       .  S
C1405      C3310   1.572       .  A
C1405      C1410   1.555   1_655  A
C1406      C3309   1.547       .  A
C1406      C1407   1.452       .  A
C1406      H1411   1.080       .  S
C1407      C3312   1.435       .  A
C1407      O1412   1.365       .  S
C1408      C3311   1.429       .  A
C1408      C1409   1.416   1_655  A
C1409      C1410   1.428       .  A
C1409      H1413   1.071       .  S
C1410      O1414   1.369       .  S
O1412      H1416   0.994       .  S
O1414      H1415   0.991       .  S
C1417      C3322   1.385       .  A
C1417      C1422   1.416       .  A
C1418      C3321   1.383       .  A
C1418      C1419   1.375       .  A
C1418      H1423   1.084       .  S
C1419      C3324   1.421       .  A
C1419      O1424   1.371   1_655  S
C1420      C3323   1.416       .  A
C1420      C1421   1.387       .  A
C1421      C1422   1.387       .  A
C1421      H1425   1.084       .  S
C1422      O1426   1.371       .  S
O1424      H1428   0.992       .  S
O1426      H1427   0.992       .  S
O1429      C1456   1.253       .  A
O1429     Mn1455   1.988       .  S
C1430      O3367   1.225       .  A
C1430      O3364   1.253       .  A
C1430      C1896   1.430       .  S
O1431     Mn2866   2.108   1_556  S
O1431     Mn2401   2.120       .  S
O1431     Mn1455   2.107   1_655  S
O1432      C1442   1.271       .  A
O1432     Mn1466   2.204       .  S
O1433     Mn3353   2.104   1_445  S
O1434      C1461   1.272       .  A
O1434     Mn1453   2.242       .  S
O1435     Mn1455   1.958       .  S
O1435      C1451   1.210       .  S
C1436      O1439   1.216       .  A
C1436      C1788   1.563       .  S
C1436      O1462   1.286       .  S
O1437     Mn1457   2.165       .  S
O1437     Mn2881   2.094       .  S
Mn1438     O1467   2.006       .  S
Mn1438     O2859   2.114       .  S
Mn1438     O3348   2.153       .  S
O1440      C1442   1.239       .  A
O1440     Mn1447   2.006       .  S
C1441      O1467   1.245       .  A
C1441      C1845   1.483       .  S
C1442      C1833   1.510       .  S
O1444     Mn3342   2.137   1_455  S
O1444     Mn1447   2.195       .  S
O1444     Mn1466   2.059       .  S
O1445     Mn1449   1.957       .  S
O1445     Mn1471   1.988       .  S
O1445      C1468   1.221       .  S
C1446      O1472   1.142       .  A
C1446      C3785   1.826       .  S
Mn1447     O1460   2.166   1_455  S
Mn1447     O2406   2.003   1_455  S
O1448     Mn1471   2.240       .  S
Mn1449     O3337   2.107   1_565  S
Mn1449     O2383   2.127   1_565  S
Mn1449     O1459   2.061       .  S
O1450      C1452   1.262       .  A
O1450     Mn3359   2.023       .  S
C1451      O1469   1.274       .  A
C1451      C1797   1.467       .  S
C1452      O1465   1.287       .  A
C1452      C1860   1.487       .  S
Mn1453     O2865   2.128   1_456  S
O1454     Mn2399   1.984       .  S
O1454     Mn1457   1.924       .  S
Mn1455     O3354   2.019   1_455  S
Mn1455     O1473   1.900   1_456  S
C1456      C1824   1.456       .  S
Mn1457     O1464   2.158       .  S
Mn1457     O1472   1.956       .  S
Mn1457     O3366   2.104       .  S
C1458      O1464   1.275       .  A
C1458      C1764   1.460       .  S
O1459     Mn1471   2.003       .  S
O1459      C3365   1.216       .  S
O1460      C3334   1.262       .  A
C1461      C1869   1.569       .  S
C1461      O3363   1.214   1_455  S
O1462     Mn3361   2.112   1_455  S
O1463      C3334   1.223       .  A
O1463     Mn1466   1.996   1_655  S
C1468      C1809   1.469       .  S
O1470      C1475   1.246       .  A
Mn1471     O1474   1.958       .  S
O1473      C3379   1.216       .  S
C1475      O3377   1.218       .  S
O1476      C1503   1.273       .  A
O1476     Mn1502   2.068   1_455  S
C1477      O3414   1.237       .  A
C1477      O3411   1.267       .  A
C1477      C1893   1.441       .  S
O1478     Mn1485   2.097       .  S
O1478     Mn1496   2.108       .  S
O1478     Mn3404   2.067       .  S
O1478     Mn3406   2.155       .  S
O1479      C1489   1.290       .  A
O1479     Mn1513   2.232   1_455  S
O1480      C1503   1.287       .  A
O1480     Mn3400   2.138   1_455  S
O1481      C1508   1.298       .  A
O1481     Mn1500   2.309       .  S
O1482     Mn1513   1.970   1_455  S
O1482     Mn1502   2.023   1_455  S
O1482      C1498   1.242       .  S
C1483      O1486   1.231       .  A
C1483      C1701   1.501       .  S
C1483      O1509   1.270       .  S
O1484     Mn1504   2.097       .  S
O1484     Mn1485   2.061       .  S
O1484     Mn1518   2.063       .  S
O1484     Mn3404   2.202       .  S
Mn1485     O1514   1.975       .  S
Mn1485     O1490   2.083       .  S
Mn1485     O1517   2.021       .  S
Mn1485     O3395   2.107       .  S
O1486     Mn1500   2.002       .  S
O1487      C1489   1.244       .  A
O1487     Mn1494   2.009       .  S
C1488      O1514   1.241       .  A
C1488      C1713   1.487       .  S
C1488      O1501   1.249       .  S
C1489      C1728   1.490       .  S
O1490      C1515   1.249       .  A
O1491     Mn3389   2.110       .  S
O1491     Mn1494   2.146   1_655  S
O1491     Mn1513   2.078       .  S
O1491     Mn1500   2.142   1_655  S
O1492     Mn1496   1.944       .  S
O1492     Mn1518   2.084       .  S
O1492      C1515   1.222       .  S
C1493      O3423   1.186   1_655  A
C1493      O3399   1.301       .  A
C1493      C1884   1.627       .  S
Mn1494     O1507   2.105   1_455  S
Mn1494     O1509   2.010       .  S
Mn1494     O3405   1.978   1_455  S
O1495      C3397   1.301       .  A
O1495     Mn1518   2.404       .  S
Mn1496     O3384   2.117       .  S
Mn1496     O1512   2.168       .  S
Mn1496     O1506   1.988       .  S
O1497      C1499   1.257       .  A
O1497     Mn3406   2.014       .  S
C1498      O1516   1.278       .  A
C1498      C1689   1.530       .  S
C1499      O1512   1.286       .  A
C1499      C1857   1.485       .  S
Mn1500     O1516   2.156       .  S
Mn1500     O3382   2.066   1_455  S
Mn1500     O3388   2.198   1_455  S
O1501     Mn3398   1.969       .  S
O1501     Mn1504   1.950       .  S
Mn1502     O3401   2.008       .  S
Mn1502     O3382   2.158       .  S
Mn1502     O3424   2.000       .  S
C1503      C1740   1.466       .  S
Mn1504     O1511   2.196       .  S
Mn1504     O1519   2.024       .  S
Mn1504     O3413   1.956       .  S
C1505      O1511   1.273       .  A
C1505      O1521   1.250       .  A
C1505      C1680   1.455       .  S
O1506     Mn1518   2.060       .  S
O1506      C3412   1.207       .  S
O1507      C3381   1.268       .  A
C1508      C1872   1.568       .  S
C1508      O3410   1.205   1_455  S
O1509     Mn3408   1.950   1_455  S
O1510      C3381   1.234       .  A
O1510     Mn1513   2.041       .  S
Mn1513     O3424   2.046       .  S
C1515      C1749   1.469       .  S
O1517      C1522   1.237       .  A
Mn1518     O1521   2.014       .  S
O1519      C3397   1.188       .  A
O1520     Mn3406   1.999       .  S
O1520     Mn3417   2.041       .  S
O1520      C1522   1.254       .  S
C1522      C1665   1.536       .  S
O1523      C1550   1.279       .  A
O1523     Mn1549   2.112       .  S
C1524      O1557   1.245       .  A
C1524      O1554   1.271       .  A
C1524      C1848   1.461       .  S
O1525     Mn1532   2.089       .  S
O1525     Mn1543   2.063       .  S
O1525     Mn1547   2.104       .  S
O1525     Mn1549   2.100       .  S
O1526      C1536   1.290       .  A
O1526     Mn1560   2.209       .  S
O1527      C1550   1.278       .  A
O1527     Mn1543   2.109       .  S
O1528      C1555   1.270       .  A
O1528     Mn1547   2.205       .  S
O1529     Mn1560   1.944       .  S
O1529     Mn1549   1.979       .  S
O1529      C1545   1.210       .  S
C1530      O1533   1.241       .  A
C1530      C1692   1.565       .  S
C1530      O1556   1.279       .  S
O1531     Mn1551   2.139       .  S
O1531     Mn1532   2.067       .  S
O1531     Mn1547   2.252       .  S
Mn1532     O1538   2.175       .  S
O1533     Mn1547   2.037       .  S
O1534      C1536   1.250       .  A
O1534     Mn1541   2.025       .  S
C1535      O1561   1.252       .  A
C1535      C1629   1.461       .  S
C1536      C1617   1.494       .  S
O1537      C1562   1.260       .  A
O1538     Mn1541   2.128       .  S
O1538     Mn1560   2.100       .  S
O1538     Mn1547   2.127       .  S
O1539     Mn1565   2.023       .  S
O1539      C1562   1.214       .  S
C1540      O1566   1.229       .  A
C1540      O1542   1.280       .  A
C1540      C1836   1.483       .  S
Mn1541     O1554   2.153       .  S
Mn1541     O1556   2.068       .  S
Mn1541     O1548   1.969       .  S
Mn1543     O1553   1.923       .  S
O1544      C1546   1.264       .  A
O1544     Mn1549   2.071       .  S
C1545      O1563   1.286       .  A
C1545      C1668   1.535       .  S
Mn1547     O1563   2.236       .  S
O1548     Mn1551   1.951       .  S
Mn1549     O1567   1.980       .  S
C1550      C1653   1.481       .  S
Mn1551     O1566   1.934       .  S
Mn1551     O1556   1.973       .  S
C1552      O1558   1.282       .  A
C1552      O1568   1.273       .  A
C1552      C1704   1.480       .  S
O1553      C1555   1.186       .  S
C1555      C1821   1.468       .  S
O1557     Mn1560   2.043       .  S
Mn1560     O1567   1.981       .  S
C1562      C1644   1.509       .  S
Mn1565     O1568   2.072       .  S
O1567      C1569   1.227       .  S
O1570      C1597   1.275       .  A
O1570     Mn1596   2.128       .  S
C1571      O1604   1.258       .  A
C1571      O1601   1.282   1_554  A
C1571      C1800   1.478       .  S
O1572     Mn1594   2.101   1_554  S
O1572     Mn1596   2.113   1_554  S
O1573      C1583   1.286       .  A
O1573     Mn1607   2.198       .  S
O1574      C1597   1.264       .  A
O1575      C1602   1.270       .  A
O1575     Mn1594   2.256       .  S
O1576     Mn1607   1.886       .  S
O1576     Mn1596   1.901       .  S
O1576      C1592   1.197       .  S
C1577      O1580   1.233       .  A
C1577      C1641   1.534       .  S
C1577      O1603   1.263       .  S
O1578     Mn1598   2.136       .  S
O1578     Mn1579   2.088       .  S
O1578     Mn1612   2.089       .  S
Mn1579     O1608   2.077       .  S
Mn1579     O1584   2.158       .  S
Mn1579     O1611   2.035       .  S
O1580     Mn1594   1.982       .  S
O1581      C1583   1.247       .  A
O1581     Mn1588   2.018       .  S
C1582      O1608   1.265       .  A
C1582      C1725   1.509       .  S
C1582      O1595   1.247       .  S
C1583      C1737   1.479       .  S
O1584      C1609   1.263       .  A
O1585     Mn1588   2.112       .  S
O1585     Mn1607   2.108       .  S
O1585     Mn1594   2.153       .  S
O1586     Mn1590   1.934       .  S
O1586     Mn1612   2.014       .  S
O1586      C1609   1.204       .  S
C1587      O1589   1.279       .  A
Mn1588     O1601   2.138       .  S
Mn1588     O1603   2.030       .  S
Mn1590     O1606   2.170       .  S
O1591     Mn1596   2.025   1_554  S
C1592      O1610   1.268       .  A
C1592      C1656   1.482       .  S
C1593      O1606   1.281       .  A
C1593      C1776   1.487       .  S
Mn1594     O1610   2.198       .  S
O1595     Mn1598   2.027       .  S
Mn1596     O1614   1.984   1_556  S
C1597      C1752   1.499       .  S
Mn1598     O1605   2.176       .  S
Mn1598     O1613   2.040       .  S
C1599      O1605   1.293       .  A
C1599      O1615   1.262       .  A
C1599      C1632   1.477       .  S
O1600      C1602   1.176       .  S
C1602      C1761   1.485       .  S
O1604     Mn1607   2.041   1_554  S
Mn1607     O1614   2.044   1_556  S
C1609      C1716   1.486       .  S
O1611      C1616   1.243       .  A
Mn1612     O1615   2.012       .  S
C1616      C1620   1.490       .  S
C1617      C1618   1.396       .  A
C1617      C1622   1.427       .  A
C1618      C1619   1.409       .  A
C1618      H1623   1.084       .  S
C1619      C1620   1.418       .  A
C1619      O1624   1.367       .  S
C1620      C1621   1.390       .  A
C1621      C1622   1.404       .  A
C1621      H1625   1.084       .  S
C1622      O1626   1.367       .  S
O1624      H1628   0.990       .  S
O1626      H1627   0.992       .  S
C1629      C1630   1.402       .  A
C1629      C1634   1.399       .  A
C1630      C1631   1.392       .  A
C1630      H1635   1.085       .  S
C1631      C1632   1.414       .  A
C1631      O1636   1.373       .  S
C1632      C1633   1.392       .  A
C1633      C1634   1.408       .  A
C1633      H1637   1.078       .  S
C1634      O1638   1.370       .  S
O1636      H1640   0.993       .  S
O1638      H1639   0.992       .  S
C1641      C1642   1.423       .  A
C1641      C1646   1.414       .  A
C1642      C1643   1.398       .  A
C1642      H1647   1.078       .  S
C1643      C1644   1.393       .  A
C1643      O1648   1.369       .  S
C1644      C1645   1.419       .  A
C1645      C1646   1.436       .  A
C1645      H1649   1.083       .  S
C1646      O1650   1.368       .  S
O1648      H1652   0.986       .  S
O1650      H1651   0.989       .  S
C1653      C1654   1.411       .  A
C1653      C1658   1.401       .  A
C1654      C1655   1.410       .  A
C1654      H1659   1.083       .  S
C1655      C1656   1.404       .  A
C1655      O1660   1.368       .  S
C1656      C1657   1.414       .  A
C1657      C1658   1.394       .  A
C1657      H1661   1.083       .  S
C1658      O1662   1.372       .  S
O1660      H1664   0.992       .  S
O1662      H1663   0.992       .  S
C1665      C1666   1.431       .  A
C1665      C1670   1.407       .  A
C1666      C1667   1.421       .  A
C1666      H1671   1.082       .  S
C1667      C1668   1.405       .  A
C1667      O1672   1.371       .  S
C1668      C1669   1.430       .  A
C1669      C1670   1.423       .  A
C1669      H1673   1.083       .  S
C1670      O1674   1.370       .  S
O1672      H1676   0.992       .  S
O1674      H1675   0.992       .  S
C1677      C1678   1.392       .  A
C1677      C1682   1.420       .  A
C1678      C1679   1.396       .  A
C1678      H1683   1.084       .  S
C1679      C1680   1.419       .  A
C1679      O1684   1.373       .  S
C1680      C1681   1.394       .  A
C1681      C1682   1.390       .  A
C1681      H1685   1.085       .  S
C1682      O1686   1.372       .  S
O1684      H1688   0.993       .  S
O1686      H1687   0.992       .  S
C1689      C1690   1.384       .  A
C1689      C1694   1.421       .  A
C1690      C1691   1.414       .  A
C1690      H1695   1.085       .  S
C1691      C1692   1.426       .  A
C1691      O1696   1.354       .  S
C1692      C1693   1.426       .  A
C1693      C1694   1.446       .  A
C1693      H1697   1.083       .  S
C1694      O1698   1.370       .  S
O1696      H1700   0.993       .  S
O1698      H1699   0.991       .  S
C1701      C1702   1.412       .  A
C1701      C1706   1.405       .  A
C1702      C1703   1.381       .  A
C1702      H1707   1.064       .  S
C1703      C1704   1.386       .  A
C1703      O1708   1.370       .  S
C1704      C1705   1.404       .  A
C1705      C1706   1.419       .  A
C1705      H1709   1.065       .  S
C1706      O1710   1.371       .  S
O1708      H1712   0.992       .  S
O1710      H1711   0.992       .  S
C1713      C1714   1.423       .  A
C1713      C1718   1.394       .  A
C1714      C1715   1.402       .  A
C1714      H1719   1.083       .  S
C1715      C1716   1.397       .  A
C1715      O1720   1.374       .  S
C1716      C1717   1.416       .  A
C1717      C1718   1.397       .  A
C1717      H1721   1.076       .  S
C1718      O1722   1.370       .  S
O1720      H1724   0.992       .  S
O1722      H1723   0.992       .  S
C1725      C1726   1.405       .  A
C1725      C1730   1.421       .  A
C1726      C1727   1.411       .  A
C1726      H1731   1.083       .  S
C1727      C1728   1.418       .  A
C1727      O1732   1.372       .  S
C1728      C1729   1.396       .  A
C1729      C1730   1.409       .  A
C1729      H1733   1.072       .  S
C1730      O1734   1.372       .  S
O1732      H1736   0.992       .  S
O1734      H1735   0.992       .  S
C1737      C1738   1.400       .  A
C1737      C1742   1.418       .  A
C1738      C1739   1.404       .  A
C1738      H1743   1.076       .  S
C1739      C1740   1.407       .  A
C1739      O1744   1.374       .  S
C1740      C1741   1.396       .  A
C1741      C1742   1.399       .  A
C1741      H1745   1.084       .  S
C1742      O1746   1.374       .  S
O1744      H1748   0.991       .  S
O1746      H1747   0.992       .  S
C1749      C1750   1.402       .  A
C1749      C1754   1.398       .  A
C1750      C1751   1.405       .  A
C1750      H1755   1.083       .  S
C1751      C1752   1.410       .  A
C1751      O1756   1.368       .  S
C1752      C1753   1.412       .  A
C1753      C1754   1.395       .  A
C1753      H1757   1.071       .  S
C1754      O1758   1.373       .  S
O1756      H1760   0.993       .  S
O1758      H1759   0.992       .  S
C1761      C1762   1.418       .  A
C1761      C1766   1.421       .  A
C1762      C1763   1.421   1_556  A
C1762      H1767   1.083       .  S
C1763      O1768   1.370       .  S
C1764      C1765   1.396       .  A
C1765      H1769   1.087       .  S
C1766      O1770   1.364       .  S
O1768      H1772   0.991       .  S
C1773      C1778   1.411       .  A
C1774      C1775   1.413       .  A
C1774      H1779   1.083   1_554  S
C1775      O1780   1.373       .  S
C1776      C1777   1.402       .  A
C1777      C1778   1.402       .  A
C1777      H1781   1.079       .  S
C1778      O1782   1.375       .  S
O1780      H1784   0.990   1_554  S
O1782      H1783   0.992       .  S
C1785      C1786   1.407       .  A
C1786      C1787   1.449       .  A
C1786      H1791   1.057       .  S
C1787      C1788   1.406       .  A
C1787      O1792   1.366       .  S
C1788      C1789   1.440       .  A
C1790      O1794   1.360   1_554  S
O1792      H1796   0.990       .  S
O1794      H1795   0.988       .  S
C1797      C1798   1.409       .  A
C1798      C1799   1.383       .  A
C1798      H1803   1.084       .  S
C1799      C1800   1.401   1_556  A
C1799      O1804   1.373       .  S
C1801      C1802   1.404       .  A
C1801      H1805   1.083       .  S
C1802      O1806   1.371       .  S
O1804      H1808   0.992   1_556  S
O1806      H1807   0.992       .  S
C1809      C1810   1.403       .  A
C1809      C1814   1.408       .  A
C1810      C1811   1.391       .  A
C1810      H1815   1.084       .  S
C1811      C1812   1.407       .  A
C1811      O1816   1.371       .  S
C1812      C1813   1.404       .  A
C1813      C1814   1.397       .  A
C1813      H1817   1.084   1_565  S
C1814      O1818   1.372   1_565  S
O1816      H1820   0.992       .  S
O1818      H1819   0.991       .  S
C1821      C1822   1.413       .  A
C1821      C1826   1.387       .  A
C1822      C1823   1.360       .  A
C1822      H1827   1.060       .  S
C1823      C1824   1.381       .  A
C1824      C1825   1.426       .  A
C1825      C1826   1.403       .  A
C1825      H1829   1.074       .  S
C1826      O1830   1.370       .  S
O1828      H1832   0.992       .  S
O1830      H1831   0.992       .  S
C1833      C1834   1.419       .  A
C1833      C1838   1.409       .  A
C1834      C1835   1.414       .  A
C1835      C1836   1.401       .  A
C1836      C1837   1.418       .  A
C1837      C1838   1.412       .  A
C1837      H1841   1.080       .  S
C1838      O1842   1.371       .  S
O1840      H1844   0.992       .  S
O1842      H1843   0.992       .  S
C1845      C1850   1.401       .  A
C1846      C1847   1.404       .  A
C1846      H1851   1.065       .  S
C1847      O1852   1.372       .  S
C1848      C1849   1.394       .  A
C1849      C1850   1.397       .  A
C1849      H1853   1.076       .  S
C1850      O1854   1.367       .  S
O1852      H1856   0.992       .  S
O1854      H1855   0.991       .  S
C1857      C1858   1.414       .  A
C1857      C1862   1.397       .  A
C1858      C1859   1.401       .  A
C1858      H1863   1.071       .  S
C1859      C1860   1.397       .  A
C1859      O1864   1.371       .  S
C1860      C1861   1.419       .  A
C1861      C1862   1.404       .  A
C1861      H1865   1.080       .  S
C1862      O1866   1.369       .  S
O1864      H1868   0.991       .  S
O1866      H1867   0.992       .  S
C1869      C1870   1.416       .  A
C1869      C1874   1.427       .  A
C1870      C3775   1.433       .  A
C1870      H3779   1.083       .  S
C1871      C3774   1.427       .  A
C1871      C3776   1.427       .  A
C1871      O1876   1.372       .  S
C1872      C3775   1.428       .  A
C1872      C1873   1.425       .  A
C1873      C1874   1.450       .  A
C1873      H1877   1.083       .  S
C1874      O1878   1.371       .  S
H1875      C3774   1.083       .  S
O1876      H1880   0.992       .  S
O1878      H1879   0.992       .  S
C1881      C3350   1.856       .  S
C1881      C3786   1.561       .  A
C1881      C1886   1.548   1_655  A
C1882      C3785   1.543       .  A
C1882      C1883   1.451       .  A
C1882      H1887   1.080       .  S
C1883      C3788   1.437       .  A
C1883      O1888   1.365       .  S
C1884      C3787   1.431       .  A
C1884      C1885   1.438   1_655  A
C1885      C1886   1.446       .  A
C1885      H1889   1.081       .  S
C1886      O1890   1.373       .  S
O1888      H1892   0.994       .  S
O1890      H1891   0.990       .  S
C1893      C3798   1.387       .  A
C1893      C1898   1.417       .  A
C1894      C3797   1.381       .  A
C1894      C1895   1.372       .  A
C1894      H1899   1.084       .  S
C1895      C3800   1.421       .  A
C1895      O1900   1.370   1_655  S
C1896      C3799   1.415       .  A
C1896      C1897   1.385       .  A
C1897      C1898   1.385       .  A
C1897      H1901   1.084       .  S
C1898      O1902   1.371       .  S
O1900      H1904   0.992       .  S
O1902      H1903   0.992       .  S
O1905      C1932   1.258       .  A
O1905     Mn1931   2.004       .  S
C1906      C2372   1.446       .  S
O1907     Mn2881   2.098   1_545  S
O1907     Mn1931   2.113       .  S
O1908      C1918   1.276       .  A
O1908     Mn1942   2.215       .  S
O1909      C2884   1.282       .  A
O1910      C1937   1.265       .  A
O1910     Mn1929   2.223       .  S
O1911     Mn2418   1.955       .  S
O1911     Mn1931   1.985       .  S
O1911      C1927   1.217       .  S
C1912      O1915   1.219       .  A
C1912      C2264   1.556       .  S
C1912      O1938   1.282       .  S
O1913     Mn1933   2.168       .  S
O1913     Mn2866   2.087       .  S
O1913     Mn2423   2.063   1_554  S
Mn1914     O1943   2.028   1_545  S
Mn1914     O2395   2.072   1_554  S
Mn1914     O2422   2.108       .  S
Mn1914     O2865   2.017   1_545  S
O1915     Mn2405   1.955   1_554  S
O1916      C1918   1.239       .  A
O1916     Mn1923   2.027   1_545  S
C1917      O1943   1.254       .  A
C1917      C2321   1.493       .  S
C1917      O2882   1.256       .  S
C1918      C2309   1.517       .  S
O1919      C2896   1.253   1_545  A
O1919     Mn2390   2.083       .  S
O1920     Mn1923   2.165   1_545  S
O1920     Mn1942   2.072       .  S
O1920     Mn3357   2.189   1_544  S
O1921     Mn1925   1.949       .  S
O1921     Mn1947   2.029       .  S
O1921      C1944   1.231       .  S
C1922      O1948   1.142       .  A
C1922      O2400   1.319   1_554  A
Mn1923     O1936   2.139   1_565  S
Mn1923     O2890   1.982       .  S
O1924      C2398   1.364       .  A
O1924     Mn1947   2.395       .  S
Mn1925     O2893   2.167       .  S
Mn1925     O1935   2.058       .  S
O1926      C1928   1.262       .  A
C1927      O1945   1.274       .  A
C1927      C2273   1.469       .  S
C1928      O1941   1.289       .  A
C1928      C2336   1.489       .  S
Mn1929     O2391   1.954       .  S
Mn1929     O2897   2.162       .  S
Mn1929     O2859   2.098       .  S
Mn1929     O3348   2.188       .  S
O1930     Mn1933   1.933       .  S
O1930      C2869   1.248       .  S
Mn1931     O1949   1.903       .  S
C1932      O2861   1.282       .  A
C1932      C2300   1.443       .  S
Mn1933     O1940   2.166       .  S
Mn1933     O1948   1.959       .  S
C1934      O1940   1.277       .  A
C1934      O2426   1.248   1_554  A
C1934      C2240   1.463       .  S
O1935     Mn1947   2.017       .  S
C1937      C2345   1.564       .  S
O1938     Mn2875   1.982       .  S
O1939     Mn1942   2.000       .  S
O1941     Mn2877   2.172   1_545  S
Mn1942     O2387   1.955   1_554  S
Mn1942     O2425   1.942       .  S
C1944      O2871   1.256       .  A
C1944      C2285   1.473       .  S
O1945     Mn2881   2.162   1_545  S
O1946      C1951   1.247       .  A
O1946     Mn2390   2.100       .  S
Mn1947     O1950   1.952       .  S
Mn1947     O2389   2.009       .  S
O1949     Mn2418   1.936       .  S
O1950      C2410   1.232       .  A
C1951      C2725   1.499       .  S
O1952      C1979   1.275       .  A
O1952     Mn1978   2.074       .  S
C1953      C2369   1.444       .  S
O1954     Mn1961   2.097       .  S
O1954     Mn1972   2.112       .  S
O1955      C1965   1.287       .  A
O1955     Mn1989   2.221       .  S
O1956      C1979   1.286       .  A
O1957      C1984   1.297       .  A
O1957     Mn1976   2.300       .  S
O1958     Mn1989   1.966       .  S
O1958     Mn1978   2.020       .  S
O1958      C1974   1.239       .  S
C1959      O1962   1.229       .  A
C1959      C2177   1.502       .  S
C1959      O1985   1.270       .  S
O1960     Mn1980   2.093       .  S
O1960     Mn1961   2.058       .  S
O1960     Mn1994   2.070       .  S
Mn1961     O1990   1.979       .  S
Mn1961     O1966   2.078       .  S
Mn1961     O1993   2.020       .  S
O1962     Mn1976   1.999       .  S
O1963      C1965   1.246       .  A
O1963     Mn1970   2.015       .  S
C1964      O1990   1.242       .  A
C1964      C2189   1.491       .  S
C1964      O1977   1.250       .  S
C1965      C2204   1.485       .  S
O1966      C1991   1.249       .  A
O1967     Mn1970   2.138       .  S
O1967     Mn1989   2.076       .  S
O1967     Mn1976   2.134       .  S
O1968     Mn1972   1.950       .  S
O1968     Mn1994   2.086       .  S
O1968      C1991   1.222       .  S
C1969      C2360   1.624       .  S
Mn1970     O1983   2.095       .  S
Mn1970     O1985   2.020       .  S
O1971     Mn1994   2.403       .  S
Mn1972     O1988   2.170       .  S
Mn1972     O1982   1.991       .  S
O1973      C1975   1.257       .  A
C1974      O1992   1.278       .  A
C1974      C2165   1.528       .  S
C1975      O1988   1.286       .  A
C1975      C2333   1.486       .  S
Mn1976     O1992   2.155       .  S
O1977     Mn1980   1.959       .  S
C1979      C2216   1.474       .  S
Mn1980     O1987   2.192       .  S
Mn1980     O1995   2.021   1_655  S
C1981      O1987   1.273       .  A
C1981      O1997   1.250       .  A
C1981      C2156   1.453       .  S
O1982     Mn1994   2.062       .  S
C1984      C2348   1.562       .  S
O1986     Mn1989   2.045       .  S
C1991      C2225   1.466       .  S
O1993      C1998   1.237       .  A
Mn1994     O1997   2.012       .  S
O1996      C1998   1.257       .  S
C1998      C2141   1.542       .  S
O1999      C2026   1.279       .  A
O1999     Mn2025   2.113       .  S
C2000      O2033   1.250       .  A
C2000      O2030   1.278   1_565  A
C2000      C2324   1.476       .  S
O2001     Mn2008   2.089   1_545  S
O2001     Mn2019   2.045       .  S
O2001     Mn2023   2.105       .  S
O2001     Mn2025   2.086       .  S
O2002      C2012   1.288       .  A
O2002     Mn2036   2.197       .  S
O2003      C2026   1.277       .  A
O2003     Mn2019   2.115       .  S
O2004      C2031   1.267       .  A
O2004     Mn2023   2.218       .  S
O2005     Mn2036   1.946       .  S
O2005     Mn2025   1.977       .  S
O2005      C2021   1.209       .  S
C2006      O2009   1.241       .  A
C2006      C2168   1.566       .  S
C2006      O2032   1.281       .  S
O2007     Mn2027   2.110       .  S
O2007     Mn2008   2.048   1_545  S
O2007     Mn2993   2.129   1_545  S
O2007     Mn2023   2.260       .  S
Mn2008     O2989   2.012       .  S
Mn2008     O2965   2.169       .  S
Mn2008     O2992   1.966       .  S
Mn2008     O2014   2.180   1_565  S
O2009     Mn2023   2.037       .  S
O2010      C2012   1.254       .  A
O2010     Mn2017   2.029       .  S
C2011      O2037   1.252       .  A
C2011      C2105   1.461       .  S
C2011      O2976   1.244       .  S
C2012      C2093   1.488       .  S
O2013      C2038   1.265       .  A
O2013     Mn2960   2.175       .  S
O2014     Mn2017   2.129       .  S
O2014     Mn2036   2.100       .  S
O2014     Mn2023   2.136       .  S
O2015     Mn2971   1.987       .  S
O2015     Mn2041   2.025       .  S
O2015      C2038   1.214       .  S
C2016      O2042   1.217       .  A
C2016      O2018   1.278       .  A
C2016      C2312   1.492       .  S
Mn2017     O2030   2.171       .  S
Mn2017     O2032   2.077       .  S
Mn2017     O2024   1.969   1_545  S
O2018     Mn2993   2.244   1_545  S
Mn2019     O2987   2.110   1_545  S
Mn2019     O2967   1.990   1_545  S
Mn2019     O2029   1.917       .  S
O2020      C2022   1.265       .  A
O2020     Mn2025   2.070   1_565  S
C2021      O2039   1.286       .  A
C2021      C2144   1.540       .  S
C2022      O2987   1.275       .  A
C2022      C3240   1.465       .  S
Mn2023     O2039   2.243       .  S
O2024     Mn2027   1.947   1_565  S
O2024      C2963   1.242       .  S
Mn2025     O2043   1.963   1_545  S
C2026      C2129   1.486       .  S
Mn2027     O2986   2.145   1_545  S
Mn2027     O2042   1.918       .  S
Mn2027     O2032   1.984       .  S
C2028      O2034   1.281       .  A
C2028      O2044   1.274       .  A
C2028      C2180   1.480       .  S
O2029     Mn2993   1.974   1_545  S
O2029      C2031   1.179       .  S
C2031      C2297   1.471       .  S
O2033     Mn2036   2.056   1_565  S
O2034     Mn2979   2.145       .  S
O2035      C2974   1.274       .  A
O2035     Mn2971   2.101       .  S
Mn2036     O2043   1.970   1_545  S
O2037     Mn2960   2.003       .  S
C2038      C2120   1.530       .  S
O2040      C2997   1.227       .  A
O2040     Mn2960   1.986       .  S
Mn2041     O2970   2.248       .  S
Mn2041     O2044   2.079       .  S
Mn2041     O2959   2.126       .  S
Mn2041     O2981   1.973       .  S
O2043      C2045   1.223       .  S
C2045      O2992   1.221       .  A
C2045      C3105   1.442       .  S
O2046      C2073   1.274       .  A
O2046     Mn2072   2.121       .  S
C2047      O2080   1.258       .  A
C2047      O2077   1.285       .  A
C2047      C2276   1.492       .  S
O2048     Mn2531   2.158       .  S
O2048     Mn2542   2.052       .  S
O2048     Mn2070   2.112       .  S
O2048     Mn2072   2.114       .  S
O2049      C2059   1.283       .  A
O2049     Mn2083   2.207       .  S
O2050      C2073   1.266       .  A
O2050     Mn2542   2.085       .  S
O2051      C2078   1.264       .  A
O2051     Mn2070   2.227       .  S
O2052     Mn2083   1.881       .  S
O2052     Mn2072   1.895       .  S
O2052      C2068   1.197       .  S
C2053      O2056   1.239       .  A
C2053      C2117   1.527       .  S
C2053      O2079   1.262       .  S
O2054     Mn2074   2.135       .  S
O2054     Mn2055   2.087       .  S
O2054     Mn2088   2.092       .  S
O2054     Mn2546   2.218   1_554  S
Mn2055     O2084   2.078       .  S
Mn2055     O2060   2.164       .  S
Mn2055     O2087   2.034       .  S
Mn2055     O2524   2.151       .  S
Mn2055     O2537   2.124   1_554  S
O2056     Mn2070   1.984       .  S
O2057      C2059   1.234       .  A
O2057     Mn2064   2.022       .  S
C2058      O2084   1.265       .  A
C2058      C2201   1.500       .  S
C2058      O2071   1.243       .  S
C2059      C2213   1.469       .  S
O2060      C2085   1.265       .  A
O2061     Mn2531   2.120       .  S
O2061     Mn2064   2.092       .  S
O2061     Mn2083   2.126       .  S
O2061     Mn2070   2.162       .  S
O2062     Mn2066   1.933       .  S
O2062     Mn2088   2.012       .  S
O2062      C2085   1.204       .  S
C2063      O2565   1.242       .  A
C2063      O2065   1.286       .  A
C2063      C2737   1.535       .  S
Mn2064     O2077   2.174       .  S
Mn2064     O2079   2.022       .  S
Mn2064     O2547   1.972       .  S
O2065     Mn2564   2.243       .  S
Mn2066     O2526   2.077   1_554  S
Mn2066     O2082   2.161       .  S
Mn2066     O2524   2.049       .  S
Mn2066     O2552   1.966   1_554  S
O2067      C2545   1.260       .  A
O2067     Mn2072   2.027       .  S
C2068      O2086   1.271       .  A
C2068      C2132   1.487       .  S
C2069      O2543   1.259       .  A
C2069      O2082   1.279       .  A
C2069      C2252   1.481       .  S
Mn2070     O2086   2.211       .  S
Mn2070     O2530   2.218       .  S
O2071     Mn2540   1.971   1_554  S
O2071     Mn2074   2.026       .  S
Mn2072     O2090   1.988       .  S
C2073      C2228   1.498       .  S
Mn2074     O2081   2.179       .  S
Mn2074     O2089   2.041   1_554  S
Mn2074     O2555   1.990   1_554  S
C2075      O2081   1.293       .  A
C2075      O2091   1.263       .  A
C2075      C2108   1.480       .  S
O2076     Mn2542   1.965       .  S
O2076     Mn2564   1.930       .  S
O2076      C2078   1.182       .  S
C2078      C2237   1.472       .  S
O2079     Mn2550   1.990       .  S
O2080     Mn2083   2.045       .  S
Mn2083     O2090   2.051       .  S
C2085      C2192   1.489       .  S
O2087      C2092   1.242       .  A
Mn2088     O2541   2.244       .  S
Mn2088     O2091   2.013       .  S
Mn2088     O2552   1.927   1_554  S
O2089      C2539   1.242   1_556  A
O2090      C2568   1.237       .  S
C2092      C2096   1.489       .  S
C2092      O2566   1.235       .  S
C2093      C2094   1.395       .  A
C2093      C2098   1.423       .  A
C2094      C2095   1.406       .  A
C2094      H2099   1.084       .  S
C2095      C2096   1.418       .  A
C2095      O2100   1.368       .  S
C2096      C2097   1.392       .  A
C2097      C2098   1.404       .  A
C2097      H2101   1.084       .  S
C2098      O2102   1.368       .  S
O2100      H2104   0.990       .  S
O2102      H2103   0.992       .  S
C2105      C2106   1.402       .  A
C2105      C2110   1.400       .  A
C2106      C2107   1.392       .  A
C2106      H2111   1.085       .  S
C2107      C2108   1.414       .  A
C2107      O2112   1.374       .  S
C2108      C2109   1.393       .  A
C2109      C2110   1.408       .  A
C2109      H2113   1.079       .  S
C2110      O2114   1.370       .  S
O2112      H2116   0.993       .  S
O2114      H2115   0.992       .  S
C2117      C2118   1.422       .  A
C2117      C2122   1.405       .  A
C2118      C2119   1.412       .  A
C2118      H2123   1.084       .  S
C2119      C2120   1.408       .  A
C2119      O2124   1.371       .  S
C2120      C2121   1.424       .  A
C2121      C2122   1.434       .  A
C2121      H2125   1.083       .  S
C2122      O2126   1.370       .  S
O2124      H2128   0.991       .  S
O2126      H2127   0.991       .  S
C2129      C2130   1.414       .  A
C2129      C2134   1.400       .  A
C2130      C2131   1.414       .  A
C2130      H2135   1.083       .  S
C2131      C2132   1.404       .  A
C2131      O2136   1.369       .  S
C2132      C2133   1.416       .  A
C2133      C2134   1.394       .  A
C2133      H2137   1.083       .  S
C2134      O2138   1.372       .  S
O2136      H2140   0.991       .  S
O2138      H2139   0.992       .  S
C2141      C2142   1.432       .  A
C2141      C2146   1.408       .  A
C2142      C2143   1.422       .  A
C2142      H2147   1.082       .  S
C2143      C2144   1.405       .  A
C2143      O2148   1.371       .  S
C2144      C2145   1.431       .  A
C2145      C2146   1.425       .  A
C2145      H2149   1.083       .  S
C2146      O2150   1.370       .  S
O2148      H2152   0.992       .  S
O2150      H2151   0.992       .  S
C2153      C2997   1.468       .  S
C2153      C2154   1.392       .  A
C2153      C2158   1.418       .  A
C2154      C2155   1.395       .  A
C2154      H2159   1.084       .  S
C2155      C2156   1.418       .  A
C2155      O2160   1.373       .  S
C2156      C2157   1.395       .  A
C2157      C2158   1.391       .  A
C2157      H2161   1.085       .  S
C2158      O2162   1.372       .  S
O2160      H2164   0.993       .  S
O2162      H2163   0.992       .  S
C2165      C2166   1.383       .  A
C2165      C2170   1.421       .  A
C2166      C2167   1.411       .  A
C2166      H2171   1.085       .  S
C2167      C2168   1.430       .  A
C2167      O2172   1.354       .  S
C2168      C2169   1.425       .  A
C2169      C2170   1.446       .  A
C2169      H2173   1.083       .  S
C2170      O2174   1.370       .  S
O2172      H2176   0.994       .  S
O2174      H2175   0.991       .  S
C2177      C2178   1.413       .  A
C2177      C2182   1.407       .  A
C2178      C2179   1.384       .  A
C2178      H2183   1.067       .  S
C2179      C2180   1.387       .  A
C2179      O2184   1.371       .  S
C2180      C2181   1.405       .  A
C2181      C2182   1.420       .  A
C2181      H2185   1.072       .  S
C2182      O2186   1.371       .  S
O2184      H2188   0.992       .  S
O2186      H2187   0.992       .  S
C2189      C2190   1.424       .  A
C2189      C2194   1.395       .  A
C2190      C2191   1.403       .  A
C2190      H2195   1.083       .  S
C2191      C2192   1.397       .  A
C2191      O2196   1.374       .  S
C2192      C2193   1.417       .  A
C2193      C2194   1.400       .  A
C2193      H2197   1.077       .  S
C2194      O2198   1.370       .  S
O2196      H2200   0.992       .  S
O2198      H2199   0.992       .  S
C2201      C2202   1.403       .  A
C2201      C2206   1.419       .  A
C2202      C2203   1.406       .  A
C2202      H2207   1.083       .  S
C2203      C2204   1.416       .  A
C2203      O2208   1.372       .  S
C2204      C2205   1.396       .  A
C2205      C2206   1.408       .  A
C2205      H2209   1.074       .  S
C2206      O2210   1.372       .  S
O2208      H2212   0.992       .  S
O2210      H2211   0.992       .  S
C2213      C2214   1.391       .  A
C2213      C2218   1.421       .  A
C2214      C2215   1.403       .  A
C2214      H2219   1.079       .  S
C2215      C2216   1.414       .  A
C2215      O2220   1.370       .  S
C2216      C2217   1.393       .  A
C2217      C2218   1.391       .  A
C2217      H2221   1.084       .  S
C2218      O2222   1.374       .  S
O2220      H2224   0.992       .  S
O2222      H2223   0.992       .  S
C2225      C2226   1.401       .  A
C2225      C2230   1.397       .  A
C2226      C2227   1.402       .  A
C2226      H2231   1.083       .  S
C2227      C2228   1.410       .  A
C2227      O2232   1.368       .  S
C2228      C2229   1.411       .  A
C2229      C2230   1.396       .  A
C2229      H2233   1.072       .  S
C2230      O2234   1.372       .  S
O2232      H2236   0.993       .  S
O2234      H2235   0.992       .  S
C2237      C2238   1.416       .  A
C2237      C2242   1.418       .  A
C2238      C2239   1.417       .  A
C2238      H2243   1.084       .  S
C2239      C2716   1.414       .  A
C2239      O2244   1.369       .  S
C2240      C2715   1.415       .  A
C2240      C2241   1.399       .  A
C2241      C2718   1.395   1_554  A
C2241      H2245   1.087       .  S
C2242      C2717   1.393       .  A
C2242      O2246   1.365       .  S
O2244      H2248   0.991       .  S
O2246      H2723   0.992       .  S
H2247      O2722   0.992       .  S
C2249      C2427   1.493       .  S
C2249      C2726   1.411       .  A
C2249      C2254   1.408       .  A
C2250      C2725   1.412       .  A
C2250      C2251   1.415       .  A
C2250      H2255   1.083       .  S
C2251      C2728   1.413       .  A
C2251      O2256   1.373       .  S
C2252      C2727   1.411       .  A
C2252      C2253   1.403       .  A
C2253      C2254   1.400       .  A
C2253      H2257   1.080       .  S
C2254      O2258   1.372       .  S
O2256      H2260   0.990       .  S
O2258      H2259   0.992       .  S
C2261      C2539   1.535       .  S
C2261      C2262   1.406       .  A
C2261      C2742   1.396   1_554  A
C2262      C2263   1.446       .  A
C2262      H2267   1.054       .  S
C2263      C2264   1.405       .  A
C2263      O2268   1.367       .  S
C2264      C2265   1.438       .  A
C2265      C2742   1.412   1_554  A
C2265      H2745   1.080   1_554  S
C2266      C2737   1.396       .  A
C2266      C2741   1.412       .  A
C2266      O2270   1.371       .  S
O2268      H2272   0.990       .  S
H2269      C2741   1.080       .  S
O2270      H2271   0.992       .  S
C2273      C2274   1.401       .  A
C2273      C2754   1.406       .  A
C2274      C2275   1.397       .  A
C2274      H2279   1.082       .  S
C2275      C2276   1.408       .  A
C2275      O2280   1.373       .  S
C2276      C2753   1.415       .  A
C2277      C2752   1.415       .  A
C2277      C2278   1.410       .  A
C2277      H2281   1.083       .  S
C2278      C2749   1.406   1_554  A
C2278      O2282   1.371       .  S
O2280      H2284   0.992       .  S
O2282      H2283   0.992       .  S
C2285      C2286   1.405       .  A
C2285      C2290   1.411       .  A
C2286      C2287   1.394       .  A
C2286      H2291   1.084       .  S
C2287      C2288   1.407       .  A
C2287      O2292   1.372       .  S
C2288      C2974   1.460       .  S
C2288      C2289   1.401       .  A
C2289      C2290   1.395       .  A
C2289      H2293   1.084       .  S
C2290      O2294   1.373       .  S
O2292      H2296   0.992       .  S
O2294      H2295   0.991       .  S
C2297      C2298   1.412       .  A
C2297      C2302   1.391       .  A
C2298      C2299   1.367       .  A
C2298      H2303   1.077       .  S
C2299      C2300   1.386       .  A
C2299      O3256   1.374   1_545  S
C2300      C2301   1.419       .  A
C2301      C2302   1.403       .  A
C2301      H2305   1.084       .  S
C2302      O2306   1.362       .  S
O2304      C3251   1.374       .  S
O2304      H2308   0.992       .  S
O2306      H2307   0.992       .  S
C2309      C2310   1.419   1_545  A
C2309      C2314   1.409       .  A
C2310      C2311   1.416       .  A
C2310      H3267   1.082       .  S
C2311      C2312   1.404   1_565  A
C2311      O3268   1.375       .  S
C2312      C2313   1.420       .  A
C2313      C2314   1.414       .  A
C2313      H2317   1.080       .  S
C2314      O2318   1.371       .  S
H2315      C3262   1.082       .  S
O2316      C3263   1.374       .  S
O2316      H2320   0.992       .  S
O2318      H2319   0.992       .  S
C2321      C3274   1.415       .  A
C2321      C2326   1.404   1_565  A
C2322      C3273   1.411       .  A
C2322      C2323   1.405       .  A
C2322      H2327   1.067       .  S
C2323      C3276   1.401       .  A
C2323      O2328   1.372       .  S
C2324      C3275   1.407       .  A
C2324      C2325   1.392   1_565  A
C2325      C2326   1.396       .  A
C2325      H2329   1.078       .  S
C2326      O2330   1.364       .  S
O2328      H2332   0.992       .  S
O2330      H2331   0.990       .  S
C2333      C2334   1.414       .  A
C2333      C2338   1.396       .  A
C2334      C2335   1.401       .  A
C2334      H2339   1.070       .  S
C2335      C2336   1.397       .  A
C2335      O2340   1.371       .  S
C2336      C2337   1.419       .  A
C2337      C2338   1.405       .  A
C2337      H2341   1.080       .  S
C2338      O2342   1.369       .  S
O2340      H2344   0.992       .  S
O2342      H2343   0.992       .  S
C2345      C2346   1.412       .  A
C2345      C2350   1.430       .  A
C2347      O2352   1.372       .  S
C2348      C2349   1.422       .  A
C2349      C2350   1.448       .  A
C2349      H2353   1.083       .  S
C2350      O2354   1.369       .  S
O2352      H2356   0.992   1_455  S
O2354      H2355   0.992       .  S
C2357      C2362   1.540       .  A
C2358      C2359   1.450       .  A
C2358      H2363   1.080       .  S
C2359      O2364   1.365       .  S
C2360      C2361   1.439       .  A
C2361      C2362   1.440       .  A
C2361      H2365   1.082       .  S
C2362      O2366   1.374       .  S
O2364      H2368   0.994       .  S
O2366      H2367   0.990       .  S
C2369      C2374   1.417       .  A
C2370      C2371   1.372       .  A
C2370      H2375   1.084       .  S
C2371      O2376   1.373       .  S
C2372      C2373   1.387       .  A
C2373      C2374   1.388       .  A
C2373      H2377   1.082       .  S
C2374      O2378   1.370       .  S
O2376      H2380   0.992       .  S
O2378      H2379   0.992       .  S
O2381      C2408   1.258       .  A
O2381     Mn2407   2.007       .  S
C2382      C2848   1.433       .  S
O2383     Mn3357   2.097   1_545  S
O2383     Mn2407   2.113       .  S
O2384      C2394   1.275       .  A
O2384     Mn2418   2.216       .  S
O2385      C3360   1.282       .  A
O2386      C2413   1.266       .  A
O2386     Mn2405   2.219       .  S
O2387     Mn2407   1.984       .  S
O2387      C2403   1.217       .  S
C2388      O2391   1.219       .  A
C2388      C2740   1.556       .  S
C2388      O2414   1.283       .  S
O2389     Mn2409   1.963       .  S
O2389     Mn3342   2.020       .  S
Mn2390     O2419   2.017       .  S
Mn2390     O3341   2.088   1_545  S
O2392      C2394   1.238       .  A
O2392     Mn2399   2.026   1_545  S
C2393      O2419   1.247   1_565  A
C2393      C2797   1.489       .  S
C2393      O3358   1.247       .  S
C2394      C2785   1.518       .  S
O2395      C3372   1.257   1_545  A
O2396     Mn2399   2.163   1_545  S
O2396     Mn2418   2.071       .  S
O2396     Mn2881   2.190   1_545  S
O2397     Mn2401   1.972       .  S
O2397     Mn2423   1.999       .  S
O2397      C2420   1.225       .  S
C2398      O2424   1.135       .  A
Mn2399     O2412   2.144   1_565  S
Mn2399     O3366   1.982       .  S
O2400     Mn2423   2.236       .  S
Mn2401     O3369   2.163       .  S
Mn2401     O2411   2.064       .  S
O2402      C2404   1.263       .  A
C2403      O2421   1.275       .  A
C2403      C2749   1.469       .  S
C2404      O2417   1.288       .  A
C2404      C2812   1.484       .  S
Mn2405     O3373   2.163       .  S
Mn2405     O3335   2.097       .  S
Mn2405     O2872   2.189   1_556  S
O2406     Mn2409   1.988       .  S
O2406      C3345   1.256       .  S
Mn2407     O2425   1.908   1_556  S
C2408      O3337   1.282       .  A
C2408      C2776   1.448       .  S
Mn2409     O2416   2.144       .  S
Mn2409     O2424   1.848       .  S
C2410      O2416   1.259       .  A
C2410      C2716   1.455       .  S
O2411     Mn2423   2.002       .  S
C2413      C2821   1.561       .  S
O2414     Mn3351   1.981       .  S
O2415     Mn2418   2.000       .  S
O2417     Mn3353   2.164   1_545  S
C2420      O3347   1.251       .  A
C2420      C2761   1.477       .  S
O2421     Mn3357   2.162   1_545  S
O2422      C2427   1.247       .  A
Mn2423     O2426   1.958       .  S
O2428      C2455   1.275       .  A
O2428     Mn2454   2.075       .  S
C2429      C2845   1.444       .  S
O2430     Mn2437   2.109       .  S
O2430     Mn2448   2.122       .  S
O2431      C2441   1.288       .  A
O2431     Mn2465   2.223       .  S
O2432      C2455   1.285       .  A
O2433      C2460   1.296       .  A
O2433     Mn2452   2.298       .  S
O2434     Mn2465   1.966       .  S
O2434     Mn2454   2.020       .  S
O2434      C2450   1.239       .  S
C2435      O2438   1.230       .  A
C2435      C2653   1.504       .  S
C2435      O2461   1.270       .  S
O2436     Mn2456   2.091       .  S
O2436     Mn2437   2.047       .  S
O2436     Mn2470   2.104       .  S
Mn2437     O2466   1.992       .  S
Mn2437     O2442   2.080       .  S
Mn2437     O2469   2.014       .  S
O2438     Mn2452   2.002       .  S
O2439      C2441   1.246       .  A
O2439     Mn2446   2.013       .  S
C2440      O2466   1.244       .  A
C2440      C2665   1.491       .  S
C2440      O2453   1.248       .  S
C2441      C2680   1.486       .  S
O2442      C2467   1.247       .  A
O2443     Mn2446   2.140       .  S
O2443     Mn2465   2.076       .  S
O2443     Mn2452   2.135       .  S
O2444     Mn2448   1.931       .  S
O2444     Mn2470   2.023       .  S
O2444      C2467   1.217       .  S
C2445      C2836   1.626       .  S
Mn2446     O2459   2.096       .  S
Mn2446     O2461   2.017       .  S
O2447     Mn2470   2.340       .  S
Mn2448     O2464   2.157       .  S
Mn2448     O2458   2.021       .  S
O2449      C2451   1.257       .  A
C2450      O2468   1.278       .  A
C2450      C2641   1.528       .  S
C2451      O2464   1.283       .  A
C2451      C2809   1.482       .  S
Mn2452     O2468   2.157       .  S
O2453     Mn2456   1.975       .  S
C2455      C2692   1.473       .  S
Mn2456     O2463   2.153       .  S
Mn2456     O2471   2.008   1_655  S
C2457      O2463   1.267       .  A
C2457      O2473   1.243       .  A
C2457      C2632   1.436       .  S
O2458     Mn2470   2.020       .  S
C2460      C2824   1.560       .  S
O2462     Mn2465   2.045       .  S
C2467      C2701   1.457       .  S
O2469      C2474   1.235       .  A
Mn2470     O2473   1.995       .  S
O2472      C2474   1.255       .  S
C2474      C2617   1.536       .  S
O2475      C2502   1.281       .  A
O2475     Mn2501   2.123       .  S
C2476      O2509   1.247       .  A
C2476      O2506   1.275   1_565  A
C2476      C2800   1.469       .  S
O2477     Mn2484   2.084   1_545  S
O2477     Mn2495   2.051       .  S
O2477     Mn2499   2.105       .  S
O2477     Mn2501   2.090       .  S
O2478      C2488   1.289       .  A
O2478     Mn2512   2.199       .  S
O2479      C2502   1.277       .  A
O2479     Mn2495   2.115       .  S
O2480      C2507   1.268       .  A
O2480     Mn2499   2.218       .  S
O2481     Mn2512   1.938       .  S
O2481     Mn2501   1.969       .  S
O2481      C2497   1.207       .  S
C2482      O2485   1.241       .  A
C2482      C2644   1.565       .  S
C2482      O2508   1.281       .  S
O2483     Mn2503   2.112       .  S
O2483     Mn2484   2.056   1_545  S
O2483     Mn3469   2.125   1_545  S
O2483     Mn2499   2.258       .  S
Mn2484     O3465   2.006       .  S
Mn2484     O3441   2.173       .  S
Mn2484     O3468   1.981       .  S
Mn2484     O2490   2.178   1_565  S
O2485     Mn2499   2.036       .  S
O2486      C2488   1.253       .  A
O2486     Mn2493   2.029       .  S
C2487      O2513   1.253       .  A
C2487      C2581   1.463       .  S
C2487      O3452   1.242       .  S
C2488      C2569   1.491       .  S
O2489      C2514   1.264       .  A
O2489     Mn3436   2.172       .  S
O2490     Mn2493   2.134       .  S
O2490     Mn2512   2.100       .  S
O2490     Mn2499   2.134       .  S
O2491     Mn3447   1.988       .  S
O2491     Mn2517   2.032       .  S
O2491      C2514   1.215       .  S
C2492      O2518   1.218       .  A
C2492      O2494   1.278   1_545  A
C2492      C2788   1.492       .  S
Mn2493     O2506   2.164       .  S
Mn2493     O2508   2.071       .  S
Mn2493     O2500   1.973   1_545  S
O2494     Mn3469   2.244       .  S
Mn2495     O3463   2.107   1_545  S
Mn2495     O3443   1.989   1_545  S
Mn2495     O2505   1.917       .  S
O2496      C2498   1.265       .  A
O2496     Mn2501   2.067   1_565  S
C2497      O2515   1.286       .  A
C2497      C2620   1.535       .  S
C2498      O3463   1.275       .  A
C2498      C3716   1.462       .  S
Mn2499     O2515   2.242       .  S
O2500     Mn2503   1.948   1_565  S
O2500      C3439   1.243       .  S
Mn2501     O2519   1.983   1_545  S
C2502      C2605   1.489       .  S
Mn2503     O3462   2.144   1_545  S
Mn2503     O2518   1.920       .  S
Mn2503     O2508   1.982       .  S
C2504      O2510   1.282       .  A
C2504      O2520   1.276       .  A
C2504      C2656   1.483       .  S
O2505     Mn3469   1.971   1_545  S
O2505      C2507   1.180       .  S
C2507      C2773   1.472       .  S
O2509     Mn2512   2.046   1_565  S
O2510     Mn3455   2.146       .  S
O2511      C3450   1.275       .  A
O2511     Mn3447   2.111       .  S
Mn2512     O2519   1.978   1_545  S
O2513     Mn3436   2.013       .  S
C2514      C2596   1.532       .  S
O2516      C3473   1.221       .  A
O2516     Mn3436   1.967       .  S
Mn2517     O3446   2.246       .  S
Mn2517     O2520   2.081       .  S
Mn2517     O3435   2.132       .  S
Mn2517     O3457   1.974       .  S
O2519      C2521   1.227       .  S
C2521      O3468   1.225       .  A
C2521      C3581   1.462       .  S
O2522      C2549   1.273       .  A
O2522     Mn2548   2.115       .  S
C2523      O2556   1.257       .  A
C2523      O2553   1.284   1_554  A
C2523      C2752   1.492       .  S
O2524     Mn2546   2.111   1_554  S
O2524     Mn2548   2.112   1_554  S
O2525      C2535   1.282       .  A
O2525     Mn2559   2.203       .  S
O2526      C2549   1.266       .  A
O2527      C2554   1.266       .  A
O2527     Mn2546   2.235       .  S
O2528     Mn2559   1.882       .  S
O2528     Mn2548   1.898       .  S
O2528      C2544   1.197       .  S
C2529      O2532   1.240       .  A
C2529      C2593   1.530       .  S
C2529      O2555   1.263       .  S
O2530     Mn2550   2.135       .  S
O2530     Mn2531   2.090       .  S
O2530     Mn2564   2.091       .  S
Mn2531     O2560   2.081       .  S
Mn2531     O2536   2.162       .  S
Mn2531     O2563   2.030       .  S
O2532     Mn2546   1.988       .  S
O2533      C2535   1.235       .  A
O2533     Mn2540   2.024       .  S
C2534      O2560   1.265       .  A
C2534      C2677   1.502       .  S
C2534      O2547   1.243       .  S
C2535      C2689   1.467       .  S
O2536      C2561   1.264       .  A
O2537     Mn2540   2.091       .  S
O2537     Mn2559   2.125       .  S
O2537     Mn2546   2.161       .  S
O2538     Mn2542   1.932       .  S
O2538     Mn2564   2.007       .  S
O2538      C2561   1.204       .  S
C2539      O2541   1.286       .  A
Mn2540     O2553   2.173       .  S
Mn2540     O2555   2.024       .  S
Mn2542     O2558   2.164       .  S
O2543     Mn2548   2.025   1_554  S
C2544      O2562   1.273       .  A
C2544      C2608   1.491       .  S
C2545      O2558   1.281       .  A
C2545      C2728   1.486       .  S
Mn2546     O2562   2.219       .  S
O2547     Mn2550   2.028       .  S
Mn2548     O2566   1.976   1_556  S
C2549      C2704   1.492       .  S
Mn2550     O2557   2.180       .  S
Mn2550     O2565   2.042       .  S
C2551      O2557   1.294       .  A
C2551      O2567   1.263       .  A
C2551      C2584   1.482       .  S
O2552      C2554   1.181       .  S
C2554      C2713   1.477       .  S
O2556     Mn2559   2.043   1_554  S
Mn2559     O2566   2.043   1_556  S
C2561      C2668   1.489       .  S
O2563      C2568   1.243       .  A
Mn2564     O2567   2.016       .  S
C2568      C2572   1.488       .  S
C2569      C2570   1.396       .  A
C2569      C2574   1.424       .  A
C2570      C2571   1.408       .  A
C2570      H2575   1.084       .  S
C2571      C2572   1.419       .  A
C2571      O2576   1.368       .  S
C2572      C2573   1.392       .  A
C2573      C2574   1.404       .  A
C2573      H2577   1.084       .  S
C2574      O2578   1.368       .  S
O2576      H2580   0.990       .  S
O2578      H2579   0.992       .  S
C2581      C2582   1.401       .  A
C2581      C2586   1.400       .  A
C2582      C2583   1.394       .  A
C2582      H2587   1.084       .  S
C2583      C2584   1.415       .  A
C2583      O2588   1.374       .  S
C2584      C2585   1.394       .  A
C2585      C2586   1.409       .  A
C2585      H2589   1.078       .  S
C2586      O2590   1.370       .  S
O2588      H2592   0.993       .  S
O2590      H2591   0.992       .  S
C2593      C2594   1.422       .  A
C2593      C2598   1.406       .  A
C2594      C2595   1.412       .  A
C2594      H2599   1.084       .  S
C2595      C2596   1.408       .  A
C2595      O2600   1.371       .  S
C2596      C2597   1.425       .  A
C2597      C2598   1.435       .  A
C2597      H2601   1.083       .  S
C2598      O2602   1.370       .  S
O2600      H2604   0.992       .  S
O2602      H2603   0.991       .  S
C2605      C2606   1.415       .  A
C2605      C2610   1.399       .  A
C2606      C2607   1.417       .  A
C2606      H2611   1.083       .  S
C2607      C2608   1.405       .  A
C2607      O2612   1.369       .  S
C2608      C2609   1.417       .  A
C2609      C2610   1.395       .  A
C2609      H2613   1.083       .  S
C2610      O2614   1.372       .  S
O2612      H2616   0.991       .  S
O2614      H2615   0.992       .  S
C2617      C2618   1.431       .  A
C2617      C2622   1.406       .  A
C2618      C2619   1.420       .  A
C2618      H2623   1.082       .  S
C2619      C2620   1.404       .  A
C2619      O2624   1.371       .  S
C2620      C2621   1.431       .  A
C2621      C2622   1.422       .  A
C2621      H2625   1.083       .  S
C2622      O2626   1.370       .  S
O2624      H2628   0.992       .  S
O2626      H2627   0.992       .  S
C2629      C3473   1.442       .  S
C2629      C2630   1.382       .  A
C2629      C2634   1.419       .  A
C2630      C2631   1.373       .  A
C2630      H2635   1.085       .  S
C2631      C2632   1.420       .  A
C2631      O2636   1.370       .  S
C2632      C2633   1.390       .  A
C2633      C2634   1.385       .  A
C2633      H2637   1.085       .  S
C2634      O2638   1.372       .  S
O2636      H2640   0.994       .  S
O2638      H2639   0.991       .  S
C2641      C2642   1.384       .  A
C2641      C2646   1.420       .  A
C2642      C2643   1.411       .  A
C2642      H2647   1.085       .  S
C2643      C2644   1.429       .  A
C2643      O2648   1.355       .  S
C2644      C2645   1.426       .  A
C2645      C2646   1.445       .  A
C2645      H2649   1.083       .  S
C2646      O2650   1.370       .  S
O2648      H2652   0.994       .  S
O2650      H2651   0.991       .  S
C2653      C2654   1.412       .  A
C2653      C2658   1.405       .  A
C2654      C2655   1.384       .  A
C2654      H2659   1.065       .  S
C2655      C2656   1.387       .  A
C2655      O2660   1.370       .  S
C2656      C2657   1.406       .  A
C2657      C2658   1.420       .  A
C2657      H2661   1.068       .  S
C2658      O2662   1.371       .  S
O2660      H2664   0.992       .  S
O2662      H2663   0.992       .  S
C2665      C2666   1.423       .  A
C2665      C2670   1.397       .  A
C2666      C2667   1.403       .  A
C2666      H2671   1.083       .  S
C2667      C2668   1.397       .  A
C2667      O2672   1.374       .  S
C2668      C2669   1.417       .  A
C2669      C2670   1.400       .  A
C2669      H2673   1.077       .  S
C2670      O2674   1.371       .  S
O2672      H2676   0.992       .  S
O2674      H2675   0.992       .  S
C2677      C2678   1.404       .  A
C2677      C2682   1.419       .  A
C2678      C2679   1.407       .  A
C2678      H2683   1.083       .  S
C2679      C2680   1.417       .  A
C2679      O2684   1.372       .  S
C2680      C2681   1.397       .  A
C2681      C2682   1.408       .  A
C2681      H2685   1.073       .  S
C2682      O2686   1.372       .  S
O2684      H2688   0.992       .  S
O2686      H2687   0.992       .  S
C2689      C2690   1.391       .  A
C2689      C2694   1.420       .  A
C2690      C2691   1.403       .  A
C2690      H2695   1.080       .  S
C2691      C2692   1.415       .  A
C2691      O2696   1.370       .  S
C2692      C2693   1.393       .  A
C2693      C2694   1.389       .  A
C2693      H2697   1.084       .  S
C2694      O2698   1.374       .  S
O2696      H2700   0.992       .  S
O2698      H2699   0.992       .  S
C2701      C2702   1.397       .  A
C2701      C2706   1.397       .  A
C2702      C2703   1.401       .  A
C2702      H2707   1.083       .  S
C2703      C2704   1.410       .  A
C2703      O2708   1.367       .  S
C2704      C2705   1.410       .  A
C2705      C2706   1.393       .  A
C2705      H2709   1.074       .  S
C2706      O2710   1.373       .  S
O2708      H2712   0.993       .  S
O2710      H2711   0.992       .  S
C2713      C2714   1.417       .  A
C2713      C2718   1.414       .  A
C2714      C2715   1.420   1_556  A
C2714      H2719   1.083       .  S
C2715      O2720   1.370       .  S
C2716      C2717   1.393       .  A
C2717      H2721   1.087       .  S
C2718      O2722   1.365       .  S
O2720      H2724   0.991       .  S
C2725      C2730   1.410       .  A
C2726      C2727   1.412       .  A
C2726      H2731   1.083   1_554  S
C2727      O2732   1.373       .  S
C2728      C2729   1.401       .  A
C2729      C2730   1.402       .  A
C2729      H2733   1.079       .  S
C2730      O2734   1.374       .  S
O2732      H2736   0.990   1_554  S
O2734      H2735   0.992       .  S
C2737      C2738   1.406       .  A
C2738      C2739   1.446       .  A
C2738      H2743   1.055       .  S
C2739      C2740   1.404       .  A
C2739      O2744   1.366       .  S
C2740      C2741   1.438       .  A
C2742      O2746   1.371       .  S
O2744      H2748   0.990       .  S
O2746      H2747   0.992       .  S
C2749      C2750   1.402       .  A
C2750      C2751   1.397       .  A
C2750      H2755   1.083       .  S
C2751      C2752   1.408   1_556  A
C2751      O2756   1.374       .  S
C2753      C2754   1.411       .  A
C2753      H2757   1.083       .  S
C2754      O2758   1.371       .  S
O2756      H2760   0.992       .  S
O2758      H2759   0.992       .  S
C2761      C2762   1.405       .  A
C2761      C2766   1.411       .  A
C2762      C2763   1.396       .  A
C2762      H2767   1.084       .  S
C2763      C2764   1.408       .  A
C2763      O2768   1.372       .  S
C2764      C3450   1.466       .  S
C2764      C2765   1.402       .  A
C2765      C2766   1.398       .  A
C2765      H2769   1.084       .  S
C2766      O2770   1.372       .  S
O2768      H2772   0.992       .  S
O2770      H2771   0.991       .  S
C2773      C2774   1.412       .  A
C2773      C2778   1.390       .  A
C2774      C2775   1.367       .  A
C2774      H2779   1.076   1_545  S
C2775      C2776   1.387       .  A
C2775      O3732   1.374   1_545  S
C2776      C2777   1.420       .  A
C2777      C2778   1.404       .  A
C2777      H2781   1.084       .  S
C2778      O2782   1.362       .  S
O2780      C3727   1.374       .  S
O2780      H2784   0.992       .  S
O2782      H2783   0.992       .  S
C2785      C2786   1.418   1_545  A
C2785      C2790   1.409       .  A
C2786      C2787   1.415       .  A
C2786      H3743   1.081       .  S
C2787      C2788   1.404   1_565  A
C2787      O3744   1.375       .  S
C2788      C2789   1.421       .  A
C2789      C2790   1.415       .  A
C2789      H2793   1.080       .  S
C2790      O2794   1.371       .  S
H2791      C3738   1.081       .  S
O2792      C3739   1.376       .  S
O2792      H2796   0.992       .  S
O2794      H2795   0.992       .  S
C2797      C3750   1.416       .  A
C2797      C2802   1.399   1_565  A
C2798      C3749   1.415       .  A
C2798      C2799   1.415       .  A
C2798      H2803   1.074       .  S
C2799      C3752   1.407       .  A
C2799      O2804   1.371       .  S
C2800      C3751   1.401       .  A
C2800      C2801   1.397   1_565  A
C2801      C2802   1.398       .  A
C2801      H2805   1.075       .  S
C2802      O2806   1.367       .  S
O2804      H2808   0.992       .  S
O2806      H2807   0.991       .  S
C2809      C2810   1.413       .  A
C2809      C2814   1.398       .  A
C2810      C2811   1.397       .  A
C2810      H2815   1.069       .  S
C2811      C2812   1.395       .  A
C2811      O2816   1.371       .  S
C2812      C2813   1.420       .  A
C2813      C2814   1.404       .  A
C2813      H2817   1.082       .  S
C2814      O2818   1.369       .  S
O2816      H2820   0.991       .  S
O2818      H2819   0.992       .  S
C2821      C2822   1.411       .  A
C2821      C2826   1.429       .  A
C2823      O2828   1.368       .  S
C2824      C2825   1.422       .  A
C2825      C2826   1.448       .  A
C2825      H2829   1.083       .  S
C2826      O2830   1.369       .  S
O2828      H2832   0.992   1_455  S
O2830      H2831   0.992       .  S
C2833      C2838   1.545       .  A
C2834      C2835   1.435       .  A
C2834      H2839   1.079       .  S
C2835      O2840   1.365       .  S
C2836      C2837   1.439       .  A
C2837      C2838   1.444       .  A
C2837      H2841   1.082       .  S
C2838      O2842   1.373       .  S
O2840      H2844   0.992       .  S
O2842      H2843   0.990       .  S
C2845      C2850   1.417       .  A
C2846      C2847   1.372       .  A
C2846      H2851   1.084       .  S
C2847      O2852   1.373       .  S
C2848      C2849   1.384       .  A
C2849      C2850   1.386       .  A
C2849      H2853   1.083       .  S
C2850      O2854   1.370       .  S
O2852      H2856   0.992       .  S
O2854      H2855   0.992       .  S
O2857      C2884   1.258       .  A
O2857     Mn2883   2.007       .  S
C2858      C3324   1.440       .  S
O2859     Mn2883   2.113       .  S
O2860      C2870   1.275       .  A
O2860     Mn2894   2.217       .  S
O2862      C2889   1.266       .  A
O2862     Mn2881   2.221       .  S
O2863     Mn3370   1.954       .  S
O2863     Mn2883   1.982       .  S
O2863      C2879   1.217       .  S
C2864      O2867   1.219       .  A
C2864      C3216   1.557       .  S
C2864      O2890   1.283       .  S
O2865     Mn2885   1.960       .  S
O2865     Mn3375   2.009   1_554  S
Mn2866     O2895   2.001       .  S
Mn2866     O3347   2.077   1_554  S
Mn2866     O3374   2.101       .  S
O2867     Mn3357   1.954   1_554  S
O2868      C2870   1.238       .  A
O2868     Mn2875   2.025       .  S
C2869      O2895   1.244       .  A
C2869      C3273   1.484       .  S
C2870      C3261   1.518       .  S
O2871     Mn3342   2.071       .  S
O2872     Mn2875   2.163       .  S
O2872     Mn2894   2.069       .  S
O2873     Mn2877   1.964       .  S
O2873     Mn2899   2.002       .  S
O2873      C2896   1.225       .  S
C2874      O2900   1.133       .  A
C2874      O3352   1.366       .  A
Mn2875     O2888   2.145       .  S
O2876      C3350   1.328       .  A
O2876     Mn2899   2.261       .  S
Mn2877     O2887   2.070       .  S
O2878      C2880   1.262       .  A
C2879      O2897   1.275       .  A
C2879      C3225   1.468       .  S
C2880      O2893   1.288       .  A
C2880      C3288   1.484       .  S
Mn2881     O3343   1.956       .  S
O2882     Mn2885   1.991       .  S
Mn2883     O2901   1.909       .  S
C2884      C3252   1.448       .  S
Mn2885     O2892   2.144       .  S
Mn2885     O2900   1.844       .  S
C2886      O2892   1.258       .  A
C2886      O3378   1.232   1_554  A
C2886      C3192   1.454       .  S
O2887     Mn2899   2.010       .  S
C2889      C3297   1.562       .  S
O2891     Mn2894   2.002       .  S
Mn2894     O3339   1.956   1_554  S
Mn2894     O3377   1.938       .  S
C2896      C3237   1.476       .  S
O2898      C2903   1.247       .  A
O2898     Mn3342   2.107       .  S
Mn2899     O2902   1.948       .  S
Mn2899     O3341   2.044       .  S
O2901     Mn3370   1.943       .  S
O2902      C3362   1.244       .  A
C2903      C3677   1.493       .  S
O2904      C2931   1.275       .  A
O2904     Mn2930   2.074       .  S
C2905      C3321   1.444       .  S
O2906     Mn2913   2.109       .  S
O2906     Mn2924   2.121       .  S
O2907      C2917   1.288       .  A
O2907     Mn2941   2.220       .  S
O2908      C2931   1.286       .  A
O2909      C2936   1.296       .  A
O2909     Mn2928   2.298       .  S
O2910     Mn2941   1.966       .  S
O2910     Mn2930   2.019       .  S
O2910      C2926   1.239       .  S
C2911      O2914   1.230       .  A
C2911      C3129   1.504       .  S
C2911      O2937   1.271       .  S
O2912     Mn2932   2.091       .  S
O2912     Mn2913   2.048       .  S
O2912     Mn2946   2.102       .  S
Mn2913     O2942   1.992       .  S
Mn2913     O2918   2.082       .  S
Mn2913     O2945   2.014       .  S
O2914     Mn2928   2.001       .  S
O2915      C2917   1.246       .  A
O2915     Mn2922   2.014       .  S
C2916      O2942   1.245       .  A
C2916      C3141   1.492       .  S
C2916      O2929   1.249       .  S
C2917      C3156   1.485       .  S
O2918      C2943   1.247       .  A
O2919     Mn2922   2.138       .  S
O2919     Mn2941   2.077       .  S
O2919     Mn2928   2.135       .  S
O2920     Mn2924   1.930       .  S
O2920     Mn2946   2.022       .  S
O2920      C2943   1.216       .  S
C2921      C3312   1.625       .  S
Mn2922     O2935   2.096       .  S
Mn2922     O2937   2.019       .  S
O2923     Mn2946   2.341       .  S
Mn2924     O2940   2.159       .  S
Mn2924     O2934   2.018       .  S
O2925      C2927   1.257       .  A
C2926      O2944   1.277       .  A
C2926      C3117   1.528       .  S
C2927      O2940   1.283       .  A
C2927      C3285   1.483       .  S
Mn2928     O2944   2.157       .  S
O2929     Mn2932   1.974       .  S
C2931      C3168   1.475       .  S
Mn2932     O2939   2.155       .  S
Mn2932     O2947   2.009   1_655  S
C2933      O2939   1.267       .  A
C2933      O2949   1.244       .  A
C2933      C3108   1.437       .  S
O2934     Mn2946   2.020       .  S
C2936      C3300   1.560       .  S
O2938     Mn2941   2.043       .  S
C2943      C3177   1.457       .  S
O2945      C2950   1.235       .  A
Mn2946     O2949   1.996       .  S
O2948      C2950   1.255       .  S
C2950      C3093   1.534       .  S
O2951      C2978   1.282       .  A
O2951     Mn2977   2.129       .  S
C2952      O2985   1.246       .  A
C2952      O2982   1.274       .  A
C2952      C3276   1.466       .  S
O2953     Mn2960   2.084       .  S
O2953     Mn2971   2.053       .  S
O2953     Mn2975   2.105       .  S
O2953     Mn2977   2.093       .  S
O2954      C2964   1.288       .  A
O2954     Mn2988   2.197       .  S
O2955      C2978   1.277       .  A
O2955     Mn2971   2.116       .  S
O2956      C2983   1.268       .  A
O2956     Mn2975   2.215       .  S
O2957     Mn2988   1.940       .  S
O2957     Mn2977   1.970       .  S
O2957      C2973   1.209       .  S
C2958      O2961   1.241       .  A
C2958      C3120   1.565       .  S
C2958      O2984   1.280       .  S
O2959     Mn2979   2.110       .  S
O2959     Mn2960   2.055       .  S
O2959     Mn2975   2.256       .  S
Mn2960     O2966   2.173       .  S
O2961     Mn2975   2.039       .  S
O2962      C2964   1.253       .  A
O2962     Mn2969   2.028       .  S
C2963      O2989   1.253       .  A
C2963      C3057   1.463       .  S
C2964      C3045   1.488       .  S
O2965      C2990   1.264       .  A
O2966     Mn2969   2.134       .  S
O2966     Mn2988   2.101       .  S
O2966     Mn2975   2.131       .  S
O2967     Mn2993   2.032       .  S
O2967      C2990   1.215       .  S
C2968      O2994   1.215       .  A
C2968      O2970   1.277       .  A
C2968      C3264   1.495       .  S
Mn2969     O2982   2.160       .  S
Mn2969     O2984   2.068       .  S
Mn2969     O2976   1.975       .  S
Mn2971     O2981   1.918       .  S
O2972      C2974   1.265       .  A
O2972     Mn2977   2.068       .  S
C2973      O2991   1.286       .  A
C2973      C3096   1.534       .  S
Mn2975     O2991   2.239       .  S
O2976     Mn2979   1.951       .  S
Mn2977     O2995   1.991       .  S
C2978      C3081   1.492       .  S
Mn2979     O2994   1.921       .  S
Mn2979     O2984   1.981       .  S
C2980      O2986   1.282       .  A
C2980      O2996   1.276       .  A
C2980      C3132   1.483       .  S
O2981      C2983   1.181       .  S
C2983      C3249   1.471       .  S
O2985     Mn2988   2.046       .  S
Mn2988     O2995   1.981       .  S
C2990      C3072   1.532       .  S
Mn2993     O2996   2.082       .  S
O2995      C2997   1.229       .  S
O2998      C3025   1.273       .  A
O2998     Mn3024   2.115       .  S
C2999      O3032   1.256       .  A
C2999      O3029   1.283       .  A
C2999      C3228   1.491       .  S
O3000     Mn3483   2.150       .  S
O3000     Mn3494   2.048       .  S
O3000     Mn3022   2.111       .  S
O3000     Mn3024   2.112       .  S
O3001      C3011   1.283       .  A
O3001     Mn3035   2.206       .  S
O3002      C3025   1.265       .  A
O3002     Mn3494   2.076       .  S
O3003      C3030   1.267       .  A
O3003     Mn3022   2.239       .  S
O3004     Mn3035   1.883       .  S
O3004     Mn3024   1.900       .  S
O3004      C3020   1.196       .  S
C3005      O3008   1.240       .  A
C3005      C3069   1.530       .  S
C3005      O3031   1.263       .  S
O3006     Mn3026   2.135       .  S
O3006     Mn3007   2.087       .  S
O3006     Mn3040   2.092       .  S
O3006     Mn3498   2.217   1_554  S
Mn3007     O3036   2.079       .  S
Mn3007     O3012   2.166       .  S
Mn3007     O3039   2.027       .  S
Mn3007     O3476   2.156       .  S
Mn3007     O3489   2.124   1_554  S
O3008     Mn3022   1.990       .  S
O3009      C3011   1.235       .  A
O3009     Mn3016   2.024       .  S
C3010      O3036   1.265       .  A
C3010      C3153   1.501       .  S
C3010      O3023   1.243       .  S
C3011      C3165   1.469       .  S
O3012      C3037   1.265       .  A
O3013     Mn3483   2.126       .  S
O3013     Mn3016   2.093       .  S
O3013     Mn3035   2.124       .  S
O3013     Mn3022   2.161       .  S
O3014     Mn3018   1.930       .  S
O3014     Mn3040   2.007       .  S
O3014      C3037   1.203       .  S
C3015      O3517   1.242       .  A
C3015      O3017   1.285       .  A
C3015      C3689   1.535       .  S
Mn3016     O3029   2.171       .  S
Mn3016     O3031   2.023       .  S
Mn3016     O3499   1.971       .  S
O3017     Mn3516   2.243       .  S
Mn3018     O3478   2.082   1_554  S
Mn3018     O3034   2.170       .  S
Mn3018     O3476   2.054       .  S
Mn3018     O3504   1.967   1_554  S
O3019      C3497   1.260       .  A
O3019     Mn3024   2.025       .  S
C3020      O3038   1.275       .  A
C3020      C3084   1.494       .  S
C3021      O3495   1.259       .  A
C3021      O3034   1.282       .  A
C3021      C3204   1.487       .  S
Mn3022     O3038   2.224       .  S
Mn3022     O3482   2.221       .  S
O3023     Mn3492   1.972   1_554  S
O3023     Mn3026   2.028       .  S
Mn3024     O3042   1.976       .  S
C3025      C3180   1.492       .  S
Mn3026     O3033   2.180       .  S
Mn3026     O3041   2.040   1_554  S
Mn3026     O3507   1.989   1_554  S
C3027      O3033   1.294       .  A
C3027      O3043   1.263       .  A
C3027      C3060   1.482       .  S
O3028     Mn3494   1.964       .  S
O3028     Mn3516   1.926       .  S
O3028      C3030   1.180       .  S
C3030      C3189   1.478       .  S
O3031     Mn3502   1.989       .  S
O3032     Mn3035   2.043       .  S
Mn3035     O3042   2.043       .  S
C3037      C3144   1.490       .  S
O3039      C3044   1.242       .  A
Mn3040     O3493   2.245       .  S
Mn3040     O3043   2.015       .  S
Mn3040     O3504   1.934   1_554  S
O3041      C3491   1.242   1_556  A
O3042      C3520   1.234       .  S
C3044      C3048   1.485       .  S
C3044      O3518   1.237       .  S
C3045      C3046   1.395       .  A
C3045      C3050   1.424       .  A
C3046      C3047   1.406       .  A
C3046      H3051   1.084       .  S
C3047      C3048   1.418       .  A
C3047      O3052   1.368       .  S
C3048      C3049   1.391       .  A
C3049      C3050   1.403       .  A
C3049      H3053   1.084       .  S
C3050      O3054   1.368       .  S
O3052      H3056   0.990       .  S
O3054      H3055   0.992       .  S
C3057      C3058   1.401       .  A
C3057      C3062   1.400       .  A
C3058      C3059   1.393       .  A
C3058      H3063   1.084       .  S
C3059      C3060   1.415       .  A
C3059      O3064   1.374       .  S
C3060      C3061   1.393       .  A
C3061      C3062   1.409       .  A
C3061      H3065   1.078       .  S
C3062      O3066   1.370       .  S
O3064      H3068   0.993       .  S
O3066      H3067   0.992       .  S
C3069      C3070   1.422       .  A
C3069      C3074   1.406       .  A
C3070      C3071   1.411       .  A
C3070      H3075   1.084       .  S
C3071      C3072   1.408       .  A
C3071      O3076   1.371       .  S
C3072      C3073   1.424       .  A
C3073      C3074   1.436       .  A
C3073      H3077   1.083       .  S
C3074      O3078   1.371       .  S
O3076      H3080   0.992       .  S
O3078      H3079   0.991       .  S
C3081      C3082   1.416       .  A
C3081      C3086   1.400       .  A
C3082      C3083   1.417       .  A
C3082      H3087   1.083       .  S
C3083      C3084   1.406       .  A
C3083      O3088   1.369       .  S
C3084      C3085   1.418       .  A
C3085      C3086   1.397       .  A
C3085      H3089   1.083       .  S
C3086      O3090   1.372       .  S
O3088      H3092   0.991       .  S
O3090      H3091   0.992       .  S
C3093      C3094   1.431       .  A
C3093      C3098   1.406       .  A
C3094      C3095   1.420       .  A
C3094      H3099   1.082       .  S
C3095      C3096   1.404       .  A
C3095      O3100   1.371       .  S
C3096      C3097   1.431       .  A
C3097      C3098   1.422       .  A
C3097      H3101   1.083       .  S
C3098      O3102   1.370       .  S
O3100      H3104   0.992       .  S
O3102      H3103   0.992       .  S
C3105      C3106   1.381       .  A
C3105      C3110   1.419       .  A
C3106      C3107   1.373       .  A
C3106      H3111   1.085       .  S
C3107      C3108   1.421       .  A
C3107      O3112   1.370       .  S
C3108      C3109   1.390       .  A
C3109      C3110   1.385       .  A
C3109      H3113   1.085       .  S
C3110      O3114   1.372       .  S
O3112      H3116   0.994       .  S
O3114      H3115   0.991       .  S
C3117      C3118   1.384       .  A
C3117      C3122   1.420       .  A
C3118      C3119   1.410       .  A
C3118      H3123   1.085       .  S
C3119      C3120   1.429       .  A
C3119      O3124   1.354       .  S
C3120      C3121   1.425       .  A
C3121      C3122   1.446       .  A
C3121      H3125   1.083       .  S
C3122      O3126   1.370       .  S
O3124      H3128   0.994       .  S
O3126      H3127   0.991       .  S
C3129      C3130   1.413       .  A
C3129      C3134   1.406       .  A
C3130      C3131   1.385       .  A
C3130      H3135   1.066       .  S
C3131      C3132   1.387       .  A
C3131      O3136   1.370       .  S
C3132      C3133   1.406       .  A
C3133      C3134   1.420       .  A
C3133      H3137   1.070       .  S
C3134      O3138   1.371       .  S
O3136      H3140   0.992       .  S
O3138      H3139   0.992       .  S
C3141      C3142   1.423       .  A
C3141      C3146   1.397       .  A
C3142      C3143   1.403       .  A
C3142      H3147   1.083       .  S
C3143      C3144   1.397       .  A
C3143      O3148   1.374       .  S
C3144      C3145   1.418       .  A
C3145      C3146   1.401       .  A
C3145      H3149   1.078       .  S
C3146      O3150   1.371       .  S
O3148      H3152   0.992       .  S
O3150      H3151   0.992       .  S
C3153      C3154   1.404       .  A
C3153      C3158   1.419       .  A
C3154      C3155   1.406       .  A
C3154      H3159   1.083       .  S
C3155      C3156   1.416       .  A
C3155      O3160   1.372       .  S
C3156      C3157   1.396       .  A
C3157      C3158   1.408       .  A
C3157      H3161   1.074       .  S
C3158      O3162   1.372       .  S
O3160      H3164   0.992       .  S
O3162      H3163   0.992       .  S
C3165      C3166   1.391       .  A
C3165      C3170   1.420       .  A
C3166      C3167   1.404       .  A
C3166      H3171   1.080       .  S
C3167      C3168   1.416       .  A
C3167      O3172   1.370       .  S
C3168      C3169   1.394       .  A
C3169      C3170   1.390       .  A
C3169      H3173   1.084       .  S
C3170      O3174   1.374       .  S
O3172      H3176   0.992       .  S
O3174      H3175   0.992       .  S
C3177      C3178   1.397       .  A
C3177      C3182   1.398       .  A
C3178      C3179   1.401       .  A
C3178      H3183   1.083       .  S
C3179      C3180   1.410       .  A
C3179      O3184   1.367       .  S
C3180      C3181   1.410       .  A
C3181      C3182   1.392       .  A
C3181      H3185   1.074       .  S
C3182      O3186   1.373       .  S
O3184      H3188   0.993       .  S
O3186      H3187   0.992       .  S
C3189      C3190   1.417       .  A
C3189      C3194   1.415       .  A
C3190      C3191   1.420       .  A
C3190      H3195   1.083       .  S
C3191      C3668   1.416       .  A
C3191      O3196   1.370       .  S
C3192      C3667   1.414       .  A
C3192      C3193   1.394       .  A
C3193      C3670   1.392   1_554  A
C3193      H3197   1.087       .  S
C3194      C3669   1.395       .  A
C3194      O3198   1.365       .  S
O3196      H3200   0.991       .  S
O3198      H3675   0.992       .  S
H3199      O3674   0.992       .  S
C3201      C3379   1.498       .  S
C3201      C3678   1.413       .  A
C3201      C3206   1.410       .  A
C3202      C3677   1.411       .  A
C3202      C3203   1.412       .  A
C3202      H3207   1.083       .  S
C3203      C3680   1.411       .  A
C3203      O3208   1.373       .  S
C3204      C3679   1.411       .  A
C3204      C3205   1.403       .  A
C3205      C3206   1.403       .  A
C3205      H3209   1.077       .  S
C3206      O3210   1.378       .  S
O3208      H3212   0.991       .  S
O3210      H3211   0.992       .  S
C3213      C3491   1.536       .  S
C3213      C3214   1.406       .  A
C3213      C3694   1.396   1_554  A
C3214      C3215   1.446       .  A
C3214      H3219   1.055       .  S
C3215      C3216   1.405       .  A
C3215      O3220   1.367       .  S
C3216      C3217   1.438       .  A
C3217      C3694   1.412   1_554  A
C3217      H3697   1.080   1_554  S
C3218      C3689   1.396       .  A
C3218      C3693   1.412       .  A
C3218      O3222   1.371       .  S
O3220      H3224   0.990       .  S
H3221      C3693   1.080       .  S
O3222      H3223   0.992       .  S
C3225      C3226   1.402       .  A
C3225      C3706   1.405       .  A
C3226      C3227   1.398       .  A
C3226      H3231   1.082       .  S
C3227      C3228   1.408       .  A
C3227      O3232   1.375       .  S
C3228      C3705   1.415       .  A
C3229      C3704   1.415       .  A
C3229      C3230   1.411       .  A
C3229      H3233   1.083       .  S
C3230      C3701   1.406   1_554  A
C3230      O3234   1.371       .  S
O3232      H3236   0.992       .  S
O3234      H3235   0.992       .  S
C3237      C3238   1.405       .  A
C3237      C3242   1.411       .  A
C3238      C3239   1.395       .  A
C3238      H3243   1.084       .  S
C3239      C3240   1.407       .  A
C3239      O3244   1.372       .  S
C3240      C3241   1.402       .  A
C3241      C3242   1.398       .  A
C3241      H3245   1.084   1_565  S
C3242      O3246   1.372   1_565  S
O3244      H3248   0.992       .  S
O3246      H3247   0.991       .  S
C3249      C3250   1.411       .  A
C3249      C3254   1.390       .  A
C3250      C3251   1.367       .  A
C3250      H3255   1.076       .  S
C3251      C3252   1.387       .  A
C3252      C3253   1.420       .  A
C3253      C3254   1.404       .  A
C3253      H3257   1.084       .  S
C3254      O3258   1.363       .  S
O3256      H3260   0.992       .  S
O3258      H3259   0.992       .  S
C3261      C3262   1.418       .  A
C3261      C3266   1.409       .  A
C3262      C3263   1.416       .  A
C3263      C3264   1.404       .  A
C3264      C3265   1.421       .  A
C3265      C3266   1.415       .  A
C3265      H3269   1.080       .  S
C3266      O3270   1.371       .  S
O3268      H3272   0.992       .  S
O3270      H3271   0.992       .  S
C3273      C3278   1.405       .  A
C3274      C3275   1.416       .  A
C3274      H3279   1.074       .  S
C3275      O3280   1.371       .  S
C3276      C3277   1.395       .  A
C3277      C3278   1.399       .  A
C3277      H3281   1.077       .  S
C3278      O3282   1.369       .  S
O3280      H3284   0.992       .  S
O3282      H3283   0.991       .  S
C3285      C3286   1.413       .  A
C3285      C3290   1.398       .  A
C3286      C3287   1.397       .  A
C3286      H3291   1.068       .  S
C3287      C3288   1.395       .  A
C3287      O3292   1.371       .  S
C3288      C3289   1.420       .  A
C3289      C3290   1.405       .  A
C3289      H3293   1.082       .  S
C3290      O3294   1.369       .  S
O3292      H3296   0.991       .  S
O3294      H3295   0.992       .  S
C3297      C3298   1.411       .  A
C3297      C3302   1.429       .  A
C3299      O3304   1.367       .  S
C3300      C3301   1.422       .  A
C3301      C3302   1.448       .  A
C3301      H3305   1.083       .  S
C3302      O3306   1.369       .  S
O3304      H3308   0.992   1_455  S
O3306      H3307   0.992       .  S
C3309      C3314   1.543       .  A
C3310      C3311   1.435       .  A
C3310      H3315   1.079       .  S
C3311      O3316   1.364       .  S
C3312      C3313   1.439       .  A
C3313      C3314   1.442       .  A
C3313      H3317   1.082       .  S
C3314      O3318   1.373       .  S
O3316      H3320   0.993       .  S
O3318      H3319   0.990       .  S
C3321      C3326   1.416       .  A
C3322      C3323   1.372       .  A
C3322      H3327   1.084       .  S
C3323      O3328   1.373       .  S
C3324      C3325   1.388       .  A
C3325      C3326   1.389       .  A
C3325      H3329   1.083       .  S
C3326      O3330   1.371       .  S
O3328      H3332   0.992       .  S
O3330      H3331   0.992       .  S
O3333      C3360   1.258       .  A
O3333     Mn3359   2.004       .  S
C3334      C3800   1.444       .  S
O3335     Mn3359   2.114       .  S
O3336      C3346   1.276       .  A
O3336     Mn3370   2.216       .  S
O3338      C3365   1.265       .  A
O3338     Mn3357   2.224       .  S
O3339     Mn3359   1.986       .  S
O3339      C3355   1.217       .  S
C3340      O3343   1.219       .  A
C3340      C3692   1.556       .  S
C3340      O3366   1.282       .  S
O3341     Mn3361   2.158       .  S
Mn3342     O3371   2.033       .  S
O3344      C3346   1.239       .  A
O3344     Mn3351   2.027       .  S
C3345      O3371   1.255       .  A
C3345      C3749   1.493       .  S
C3346      C3737   1.518       .  S
O3348     Mn3351   2.165       .  S
O3348     Mn3370   2.070       .  S
O3349     Mn3353   1.950       .  S
O3349     Mn3375   2.030       .  S
O3349      C3372   1.232       .  S
C3350      O3376   1.124       .  A
Mn3351     O3364   2.137       .  S
O3352     Mn3375   2.401   1_554  S
Mn3353     O3363   2.063       .  S
O3354      C3356   1.262       .  A
C3355      O3373   1.275       .  A
C3355      C3701   1.469       .  S
C3356      O3369   1.287       .  A
C3356      C3764   1.485       .  S
O3358     Mn3361   1.918       .  S
Mn3359     O3377   1.904   1_556  S
C3360      C3728   1.444       .  S
Mn3361     O3368   2.166       .  S
Mn3361     O3376   1.951       .  S
C3362      O3368   1.276       .  A
C3362      C3668   1.463       .  S
O3363     Mn3375   2.020       .  S
C3365      C3773   1.564       .  S
O3367     Mn3370   2.000       .  S
C3372      C3713   1.475       .  S
O3374      C3379   1.246       .  A
Mn3375     O3378   1.952       .  S
O3380      C3407   1.275       .  A
O3380     Mn3406   2.074       .  S
C3381      C3797   1.443       .  S
O3382     Mn3389   2.103       .  S
O3382     Mn3400   2.115       .  S
O3383      C3393   1.288       .  A
O3383     Mn3417   2.221       .  S
O3384      C3407   1.285       .  A
O3385      C3412   1.296       .  A
O3385     Mn3404   2.299       .  S
O3386     Mn3417   1.966       .  S
O3386     Mn3406   2.020       .  S
O3386      C3402   1.240       .  S
C3387      O3390   1.229       .  A
C3387      C3605   1.503       .  S
C3387      O3413   1.270       .  S
O3388     Mn3408   2.099       .  S
O3388     Mn3389   2.056       .  S
O3388     Mn3422   2.078       .  S
Mn3389     O3418   1.987       .  S
Mn3389     O3394   2.078       .  S
Mn3389     O3421   2.020       .  S
O3390     Mn3404   2.000       .  S
O3391      C3393   1.246       .  A
O3391     Mn3398   2.015       .  S
C3392      O3418   1.243       .  A
C3392      C3617   1.494       .  S
C3392      O3405   1.250       .  S
C3393      C3632   1.485       .  S
O3394      C3419   1.248       .  A
O3395     Mn3398   2.139       .  S
O3395     Mn3417   2.077       .  S
O3395     Mn3404   2.134       .  S
O3396     Mn3400   1.953       .  S
O3396     Mn3422   2.074       .  S
O3396      C3419   1.222       .  S
C3397      C3788   1.626       .  S
Mn3398     O3411   2.096       .  S
Mn3398     O3413   2.019       .  S
O3399     Mn3422   2.404       .  S
Mn3400     O3416   2.170       .  S
Mn3400     O3410   2.003       .  S
O3401      C3403   1.256       .  A
C3402      O3420   1.278       .  A
C3402      C3593   1.528       .  S
C3403      O3416   1.286       .  A
C3403      C3761   1.485       .  S
Mn3404     O3420   2.156       .  S
O3405     Mn3408   1.959       .  S
C3407      C3644   1.473       .  S
Mn3408     O3415   2.178       .  S
Mn3408     O3423   1.997   1_655  S
C3409      O3415   1.272       .  A
C3409      O3425   1.249       .  A
C3409      C3584   1.451       .  S
O3410     Mn3422   2.052       .  S
C3412      C3776   1.562       .  S
O3414     Mn3417   2.045       .  S
C3419      C3653   1.465       .  S
O3421      C3426   1.236       .  A
Mn3422     O3425   2.011       .  S
O3424      C3426   1.257       .  S
C3426      C3569   1.543       .  S
O3427      C3454   1.279       .  A
O3427     Mn3453   2.114       .  S
C3428      O3461   1.250       .  A
C3428      O3458   1.278       .  A
C3428      C3752   1.476       .  S
O3429     Mn3436   2.090       .  S
O3429     Mn3447   2.044       .  S
O3429     Mn3451   2.106       .  S
O3429     Mn3453   2.087       .  S
O3430      C3440   1.288       .  A
O3430     Mn3464   2.197       .  S
O3431      C3454   1.277       .  A
O3431     Mn3447   2.114       .  S
O3432      C3459   1.267       .  A
O3432     Mn3451   2.218       .  S
O3433     Mn3464   1.945       .  S
O3433     Mn3453   1.976       .  S
O3433      C3449   1.209       .  S
C3434      O3437   1.241       .  A
C3434      C3596   1.567       .  S
C3434      O3460   1.281       .  S
O3435     Mn3455   2.109       .  S
O3435     Mn3436   2.047       .  S
O3435     Mn3451   2.260       .  S
Mn3436     O3442   2.180       .  S
O3437     Mn3451   2.038       .  S
O3438      C3440   1.253       .  A
O3438     Mn3445   2.029       .  S
C3439      O3465   1.252       .  A
C3439      C3533   1.462       .  S
C3440      C3521   1.488       .  S
O3441      C3466   1.264       .  A
O3442     Mn3445   2.129       .  S
O3442     Mn3464   2.101       .  S
O3442     Mn3451   2.136       .  S
O3443     Mn3469   2.028       .  S
O3443      C3466   1.214       .  S
C3444      O3470   1.215       .  A
C3444      O3446   1.277       .  A
C3444      C3740   1.493       .  S
Mn3445     O3458   2.171       .  S
Mn3445     O3460   2.076       .  S
Mn3445     O3452   1.969       .  S
Mn3447     O3457   1.918       .  S
O3448      C3450   1.265       .  A
O3448     Mn3453   2.070       .  S
C3449      O3467   1.286       .  A
C3449      C3572   1.540       .  S
Mn3451     O3467   2.245       .  S
O3452     Mn3455   1.949       .  S
Mn3453     O3471   1.964       .  S
C3454      C3557   1.485       .  S
Mn3455     O3470   1.917       .  S
Mn3455     O3460   1.983       .  S
C3456      O3462   1.281       .  A
C3456      O3472   1.275       .  A
C3456      C3608   1.481       .  S
O3457      C3459   1.179       .  S
C3459      C3725   1.471       .  S
O3461     Mn3464   2.056       .  S
Mn3464     O3471   1.970       .  S
C3466      C3548   1.531       .  S
Mn3469     O3472   2.081       .  S
O3471      C3473   1.223       .  S
O3474      C3501   1.273       .  A
O3474     Mn3500   2.116       .  S
C3475      O3508   1.257       .  A
C3475      O3505   1.285   1_554  A
C3475      C3704   1.493       .  S
O3476     Mn3498   2.112   1_554  S
O3476     Mn3500   2.113   1_554  S
O3477      C3487   1.282       .  A
O3477     Mn3511   2.204       .  S
O3478      C3501   1.266       .  A
O3479      C3506   1.264       .  A
O3479     Mn3498   2.221       .  S
O3480     Mn3511   1.882       .  S
O3480     Mn3500   1.894       .  S
O3480      C3496   1.197       .  S
C3481      O3484   1.239       .  A
C3481      C3545   1.529       .  S
C3481      O3507   1.263       .  S
O3482     Mn3502   2.134       .  S
O3482     Mn3483   2.087       .  S
O3482     Mn3516   2.094       .  S
Mn3483     O3512   2.078       .  S
Mn3483     O3488   2.167       .  S
Mn3483     O3515   2.035       .  S
O3484     Mn3498   1.986       .  S
O3485      C3487   1.234       .  A
O3485     Mn3492   2.023       .  S
C3486      O3512   1.265       .  A
C3486      C3629   1.500       .  S
C3486      O3499   1.243       .  S
C3487      C3641   1.468       .  S
O3488      C3513   1.266       .  A
O3489     Mn3492   2.092       .  S
O3489     Mn3511   2.125       .  S
O3489     Mn3498   2.160       .  S
O3490     Mn3494   1.931       .  S
O3490     Mn3516   2.010       .  S
O3490      C3513   1.204       .  S
C3491      O3493   1.286       .  A
Mn3492     O3505   2.177       .  S
Mn3492     O3507   2.024       .  S
Mn3494     O3510   2.157       .  S
O3495     Mn3500   2.019   1_554  S
C3496      O3514   1.271       .  A
C3496      C3560   1.487       .  S
C3497      O3510   1.279       .  A
C3497      C3680   1.480       .  S
Mn3498     O3514   2.211       .  S
O3499     Mn3502   2.026       .  S
Mn3500     O3518   1.983   1_556  S
C3501      C3656   1.495       .  S
Mn3502     O3509   2.178       .  S
Mn3502     O3517   2.041       .  S
C3503      O3509   1.293       .  A
C3503      O3519   1.263       .  A
C3503      C3536   1.479       .  S
O3504      C3506   1.183       .  S
C3506      C3665   1.471       .  S
O3508     Mn3511   2.044   1_554  S
Mn3511     O3518   2.046   1_556  S
C3513      C3620   1.492       .  S
O3515      C3520   1.243       .  A
Mn3516     O3519   2.012       .  S
C3520      C3524   1.488       .  S
C3521      C3522   1.395       .  A
C3521      C3526   1.424       .  A
C3522      C3523   1.406       .  A
C3522      H3527   1.084       .  S
C3523      C3524   1.418       .  A
C3523      O3528   1.368       .  S
C3524      C3525   1.392       .  A
C3525      C3526   1.404       .  A
C3525      H3529   1.084       .  S
C3526      O3530   1.368       .  S
O3528      H3532   0.990       .  S
O3530      H3531   0.992       .  S
C3533      C3534   1.402       .  A
C3533      C3538   1.401       .  A
C3534      C3535   1.393       .  A
C3534      H3539   1.085       .  S
C3535      C3536   1.414       .  A
C3535      O3540   1.374       .  S
C3536      C3537   1.393       .  A
C3537      C3538   1.408       .  A
C3537      H3541   1.078       .  S
C3538      O3542   1.370       .  S
O3540      H3544   0.993       .  S
O3542      H3543   0.992       .  S
C3545      C3546   1.422       .  A
C3545      C3550   1.405       .  A
C3546      C3547   1.412       .  A
C3546      H3551   1.084       .  S
C3547      C3548   1.408       .  A
C3547      O3552   1.371       .  S
C3548      C3549   1.425       .  A
C3549      C3550   1.435       .  A
C3549      H3553   1.083       .  S
C3550      O3554   1.370       .  S
O3552      H3556   0.991       .  S
O3554      H3555   0.991       .  S
C3557      C3558   1.414       .  A
C3557      C3562   1.399       .  A
C3558      C3559   1.414       .  A
C3558      H3563   1.083       .  S
C3559      C3560   1.404       .  A
C3559      O3564   1.369       .  S
C3560      C3561   1.416       .  A
C3561      C3562   1.394       .  A
C3561      H3565   1.082       .  S
C3562      O3566   1.373       .  S
O3564      H3568   0.991       .  S
O3566      H3567   0.992       .  S
C3569      C3570   1.432       .  A
C3569      C3574   1.408       .  A
C3570      C3571   1.423       .  A
C3570      H3575   1.082       .  S
C3571      C3572   1.405       .  A
C3571      O3576   1.370       .  S
C3572      C3573   1.432       .  A
C3573      C3574   1.426       .  A
C3573      H3577   1.083       .  S
C3574      O3578   1.370       .  S
O3576      H3580   0.992       .  S
O3578      H3579   0.992       .  S
C3581      C3582   1.389       .  A
C3581      C3586   1.419       .  A
C3582      C3583   1.390       .  A
C3582      H3587   1.084       .  S
C3583      C3584   1.420       .  A
C3583      O3588   1.372       .  S
C3584      C3585   1.393       .  A
C3585      C3586   1.389       .  A
C3585      H3589   1.085       .  S
C3586      O3590   1.372       .  S
O3588      H3592   0.993       .  S
O3590      H3591   0.992       .  S
C3593      C3594   1.383       .  A
C3593      C3598   1.421       .  A
C3594      C3595   1.410       .  A
C3594      H3599   1.085       .  S
C3595      C3596   1.430       .  A
C3595      O3600   1.354       .  S
C3596      C3597   1.425       .  A
C3597      C3598   1.446       .  A
C3597      H3601   1.083       .  S
C3598      O3602   1.370       .  S
O3600      H3604   0.994       .  S
O3602      H3603   0.991       .  S
C3605      C3606   1.413       .  A
C3605      C3610   1.406       .  A
C3606      C3607   1.384       .  A
C3606      H3611   1.066       .  S
C3607      C3608   1.387       .  A
C3607      O3612   1.371       .  S
C3608      C3609   1.405       .  A
C3609      C3610   1.420       .  A
C3609      H3613   1.071       .  S
C3610      O3614   1.371       .  S
O3612      H3616   0.992       .  S
O3614      H3615   0.992       .  S
C3617      C3618   1.423       .  A
C3617      C3622   1.396       .  A
C3618      C3619   1.405       .  A
C3618      H3623   1.083       .  S
C3619      C3620   1.398       .  A
C3619      O3624   1.374       .  S
C3620      C3621   1.418       .  A
C3621      C3622   1.401       .  A
C3621      H3625   1.077       .  S
C3622      O3626   1.370       .  S
O3624      H3628   0.992       .  S
O3626      H3627   0.992       .  S
C3629      C3630   1.403       .  A
C3629      C3634   1.419       .  A
C3630      C3631   1.406       .  A
C3630      H3635   1.083       .  S
C3631      C3632   1.417       .  A
C3631      O3636   1.372       .  S
C3632      C3633   1.397       .  A
C3633      C3634   1.408       .  A
C3633      H3637   1.074       .  S
C3634      O3638   1.372       .  S
O3636      H3640   0.992       .  S
O3638      H3639   0.992       .  S
C3641      C3642   1.391       .  A
C3641      C3646   1.421       .  A
C3642      C3643   1.403       .  A
C3642      H3647   1.079       .  S
C3643      C3644   1.414       .  A
C3643      O3648   1.370       .  S
C3644      C3645   1.393       .  A
C3645      C3646   1.390       .  A
C3645      H3649   1.084       .  S
C3646      O3650   1.374       .  S
O3648      H3652   0.992       .  S
O3650      H3651   0.992       .  S
C3653      C3654   1.401       .  A
C3653      C3658   1.397       .  A
C3654      C3655   1.403       .  A
C3654      H3659   1.083       .  S
C3655      C3656   1.409       .  A
C3655      O3660   1.368       .  S
C3656      C3657   1.410       .  A
C3657      C3658   1.395       .  A
C3657      H3661   1.073       .  S
C3658      O3662   1.372       .  S
O3660      H3664   0.993       .  S
O3662      H3663   0.992       .  S
C3665      C3666   1.415       .  A
C3665      C3670   1.417       .  A
C3666      C3667   1.416   1_556  A
C3666      H3671   1.084       .  S
C3667      O3672   1.370       .  S
C3668      C3669   1.398       .  A
C3669      H3673   1.087       .  S
C3670      O3674   1.365       .  S
O3672      H3676   0.991       .  S
C3677      C3682   1.409       .  A
C3678      C3679   1.414       .  A
C3678      H3683   1.083   1_554  S
C3679      O3684   1.372       .  S
C3680      C3681   1.402       .  A
C3681      C3682   1.401       .  A
C3681      H3685   1.081       .  S
C3682      O3686   1.372       .  S
O3684      H3688   0.990   1_554  S
O3686      H3687   0.992       .  S
C3689      C3690   1.406       .  A
C3690      C3691   1.446       .  A
C3690      H3695   1.054       .  S
C3691      C3692   1.405       .  A
C3691      O3696   1.367       .  S
C3692      C3693   1.438       .  A
C3694      O3698   1.371       .  S
O3696      H3700   0.990       .  S
O3698      H3699   0.992       .  S
C3701      C3702   1.401       .  A
C3702      C3703   1.397       .  A
C3702      H3707   1.082       .  S
C3703      C3704   1.408   1_556  A
C3703      O3708   1.373       .  S
C3705      C3706   1.409       .  A
C3705      H3709   1.083       .  S
C3706      O3710   1.371       .  S
O3708      H3712   0.992       .  S
O3710      H3711   0.992       .  S
C3713      C3714   1.404       .  A
C3713      C3718   1.412       .  A
C3714      C3715   1.394       .  A
C3714      H3719   1.084       .  S
C3715      C3716   1.407       .  A
C3715      O3720   1.372       .  S
C3716      C3717   1.401       .  A
C3717      C3718   1.396       .  A
C3717      H3721   1.084   1_565  S
C3718      O3722   1.372   1_565  S
O3720      H3724   0.992       .  S
O3722      H3723   0.991       .  S
C3725      C3726   1.412       .  A
C3725      C3730   1.391       .  A
C3726      C3727   1.368       .  A
C3726      H3731   1.077       .  S
C3727      C3728   1.387       .  A
C3728      C3729   1.419       .  A
C3729      C3730   1.403       .  A
C3729      H3733   1.084       .  S
C3730      O3734   1.363       .  S
O3732      H3736   0.992       .  S
O3734      H3735   0.992       .  S
C3737      C3738   1.419       .  A
C3737      C3742   1.408       .  A
C3738      C3739   1.417       .  A
C3739      C3740   1.404       .  A
C3740      C3741   1.421       .  A
C3741      C3742   1.414       .  A
C3741      H3745   1.080       .  S
C3742      O3746   1.371       .  S
O3744      H3748   0.992       .  S
O3746      H3747   0.992       .  S
C3749      C3754   1.404       .  A
C3750      C3751   1.407       .  A
C3750      H3755   1.068       .  S
C3751      O3756   1.372       .  S
C3752      C3753   1.392       .  A
C3753      C3754   1.396       .  A
C3753      H3757   1.078       .  S
C3754      O3758   1.364       .  S
O3756      H3760   0.991       .  S
O3758      H3759   0.990       .  S
C3761      C3762   1.415       .  A
C3761      C3766   1.397       .  A
C3762      C3763   1.399       .  A
C3762      H3767   1.071       .  S
C3763      C3764   1.396       .  A
C3763      O3768   1.371       .  S
C3764      C3765   1.419       .  A
C3765      C3766   1.404       .  A
C3765      H3769   1.081       .  S
C3766      O3770   1.369       .  S
O3768      H3772   0.992       .  S
O3770      H3771   0.992       .  S
C3773      C3774   1.412       .  A
C3773      C3778   1.430       .  A
C3775      O3780   1.372       .  S
C3776      C3777   1.422       .  A
C3777      C3778   1.448       .  A
C3777      H3781   1.083       .  S
C3778      O3782   1.369       .  S
O3780      H3784   0.992   1_455  S
O3782      H3783   0.992       .  S
C3785      C3790   1.542       .  A
C3786      C3787   1.456       .  A
C3786      H3791   1.079       .  S
C3787      O3792   1.366       .  S
C3788      C3789   1.439       .  A
C3789      C3790   1.441       .  A
C3789      H3793   1.082       .  S
C3790      O3794   1.374       .  S
O3792      H3796   0.994       .  S
O3794      H3795   0.990       .  S
C3797      C3802   1.417       .  A
C3798      C3799   1.372       .  A
C3798      H3803   1.084       .  S
C3799      O3804   1.373       .  S
C3800      C3801   1.387       .  A
C3801      C3802   1.388       .  A
C3801      H3805   1.082       .  S
C3802      O3806   1.370       .  S
O3804      H3808   0.992       .  S
O3806      H3807   0.992       .  S
