geometry optimzed in LAMMPS
_audit_creation_date              2020-11-30 
_audit_creation_method            'lammps2cif' 
_symmetry_space_group_name_H-M    'P1' 
_symmetry_Int_Tables_number       1 
_symmetry_cell_setting            triclinic 
loop_ 
_symmetry_equiv_pos_as_xyz 
  x,y,z 
_cell_length_a                    43.9127979 
_cell_length_b                    43.623763321992286 
_cell_length_c                    43.69537045388965 
_cell_angle_alpha                 90.06962599909028 
_cell_angle_beta                  90.00175752772724 
_cell_angle_gamma                 90.01619195100574 
loop_ 
_atom_site_label 
_atom_site_type_symbol 
_atom_site_fract_x 
_atom_site_fract_y 
_atom_site_fract_z 
_atom_site_charge 
O1          O  0.00489664  0.05178281  0.08725867    -0.87500
O2          O  0.00095925  0.04961604  0.41288427    -0.87700
O3          O  0.05149626  0.08728235  0.00100616    -0.89400
O4          O  0.45173827  0.08882352  0.99791602    -0.88100
O5          O  0.41463896  0.05171289  0.99872645    -0.87700
O6          O  0.08803195  0.04959674  0.99973782    -0.89100
O7          O  0.00006003  0.08675398  0.45007961    -0.87600
O8          O  0.00347960  0.08834152  0.04941580    -0.87200
Zr9        Zr  0.00152999  0.06266280  0.99984782     2.84300
O10         O  0.46917107  0.03054243  0.46918441    -1.09100
O11         O  0.03154201  0.03161430  0.03128179    -1.09900
C12         C  0.00530789  0.07986467  0.07768609     1.05600
C13         C  0.00063541  0.07785228  0.42189856     1.05500
C14         C  0.07939199  0.07788613  0.00023805     1.08500
C15         C  0.42360951  0.07992750  0.99777095     1.06300
H16         H  0.04390736  0.04365513  0.45603093     0.31800
O17         O  0.03101473  0.03108354  0.46881396    -1.30100
H18         H  0.45720579  0.04586232  0.04369931     0.31500
O19         O  0.46975651  0.03269774  0.03112825    -1.31800
O20         O  0.00049722  0.44791347  0.41529021    -0.87500
O21         O  0.00051661  0.45176701  0.08815595    -0.89000
O22         O  0.08650965  0.99695412  0.45056467    -0.87600
O23         O  0.41342552  0.00188374  0.45056437    -0.87700
O24         O  0.41358670  0.00250922  0.04942310    -0.87400
O25         O  0.08691372  0.00148075  0.05030740    -0.87200
O26         O  0.05154855  0.41445901  0.00066978    -0.87500
O27         O  0.45096699  0.41185988  0.00218957    -0.87000
O28         O  0.08853057  0.45118059  0.00176697    -0.88100
O29         O  0.41418743  0.44909641  0.00138652    -0.87200
O30         O  0.05042971  0.99792749  0.41293822    -0.87600
O31         O  0.05047797  0.00231369  0.08767708    -0.87400
O32         O  0.44988765  0.00234361  0.08699515    -0.87000
O33         O  0.44987992  0.00025019  0.41325969    -0.87400
O34         O  0.99866821  0.41125421  0.45292118    -0.87700
O35         O  0.00244578  0.41407170  0.05147520    -0.89000
Zr36       Zr  0.00030776  0.99977450  0.43791904     2.83100
Zr37       Zr  0.00068861  0.00127050  0.06281024     2.83500
Zr38       Zr  0.06206064  0.00019001  0.00075751     2.84100
Zr39       Zr  0.43909593  0.00149214  0.99987581     2.83400
Zr40       Zr  0.00166544  0.43845973  0.00134151     2.84200
O41         O  0.46955792  0.46899769  0.03139006    -1.09600
O42         O  0.03083760  0.46760493  0.47136615    -1.09100
C43         C  0.99909537  0.41986350  0.42453626     1.05500
C44         C  0.00125011  0.42342010  0.07951681     1.08200
C45         C  0.07842912  0.99677845  0.42228707     1.05700
C46         C  0.42182923  0.00133281  0.42232442     1.06100
C47         C  0.42185602  0.00225502  0.07776811     1.05700
C48         C  0.07850476  0.00245135  0.07851727     1.05200
C49         C  0.07963168  0.42289543  0.00113482     1.05600
C50         C  0.42289719  0.42072937  0.00238756     1.05200
H51         H  0.04494695  0.45749735  0.04559811     0.31800
O52         O  0.03209210  0.46980230  0.03249282    -1.30700
H53         H  0.45791026  0.45576638  0.45691092     0.31900
O54         O  0.47041557  0.46878989  0.46967893    -1.32100
O55         O  0.00273307  0.20190022  0.16273871    -0.87500
O56         O  0.99862582  0.19815615  0.33557175    -0.87700
O57         O  0.04888602  0.16233863  0.24681558    -0.89400
O58         O  0.44772281  0.16477376  0.24981340    -0.88100
O59         O  0.41120296  0.20221707  0.24902363    -0.87700
O60         O  0.08617061  0.19923987  0.24632956    -0.89100
O61         O  0.99895103  0.16133947  0.29806324    -0.87600
O62         O  0.00176518  0.16353842  0.19867215    -0.87200
Zr63       Zr  0.99925569  0.18788736  0.24887788     2.84300
O64         O  0.46864400  0.21868417  0.28038599    -1.09100
O65         O  0.03019892  0.21950853  0.21894608    -1.09900
C66         C  0.00300638  0.17349241  0.17085833     1.05600
C67         C  0.99841180  0.16997270  0.32636521     1.05500
C68         C  0.07706112  0.17105564  0.24570298     1.08500
C69         C  0.41967912  0.17384928  0.24920802     1.06300
H70         H  0.04328882  0.20443204  0.29249641     0.31800
O71         O  0.03074550  0.21782164  0.28021321    -1.30100
H72         H  0.45572711  0.20689250  0.20548275     0.31500
O73         O  0.46852453  0.21932771  0.21851634    -1.31800
O74         O  0.00134516  0.29818758  0.33781017    -0.87500
O75         O  0.00101012  0.30065127  0.16303421    -0.89000
O76         O  0.08731057  0.24662126  0.29948471    -0.87600
O77         O  0.41336314  0.24933107  0.29929408    -0.87700
O78         O  0.41343827  0.25213509  0.20023551    -0.87400
O79         O  0.08641942  0.24898430  0.20016011    -0.87200
O80         O  0.05020440  0.33747078  0.25055222    -0.87500
O81         O  0.45184452  0.33784523  0.25175401    -0.87000
O82         O  0.08672013  0.29989125  0.25036542    -0.88100
O83         O  0.41431466  0.30130418  0.24986177    -0.87200
O84         O  0.05047084  0.24501045  0.33649554    -0.87600
O85         O  0.04942148  0.25122030  0.16338182    -0.87400
O86         O  0.45033937  0.25067205  0.16328437    -0.87000
O87         O  0.44983211  0.24786654  0.33655065    -0.87400
O88         O  0.00130662  0.33620050  0.30153591    -0.87700
O89         O  0.00055435  0.33740896  0.20065836    -0.89000
Zr90       Zr  0.00041292  0.24868439  0.31173735     2.83100
Zr91       Zr  0.99998461  0.25114315  0.18848495     2.83500
Zr92       Zr  0.06172561  0.24947696  0.25000677     2.84100
Zr93       Zr  0.43856599  0.25086389  0.24990281     2.83400
Zr94       Zr  0.00106572  0.31199518  0.25090121     2.84200
O95         O  0.46955521  0.28194352  0.21948132    -1.09600
O96         O  0.03155460  0.28033075  0.28168907    -1.09100
C97         C  0.00151073  0.32663913  0.32958496     1.05500
C98         C  0.00113989  0.32875031  0.17228214     1.08200
C99         C  0.07865135  0.24454530  0.32764399     1.05700
C100        C  0.42166589  0.24814853  0.32752469     1.06100
C101        C  0.42226509  0.25167433  0.17203146     1.05700
C102        C  0.07747113  0.24977468  0.17199887     1.05200
C103        C  0.07811996  0.32831853  0.25011814     1.05600
C104        C  0.42363126  0.32941603  0.25087440     1.05200
H105        H  0.04427502  0.29409879  0.20680836     0.31800
O106        O  0.03149784  0.28132351  0.21946491    -1.30700
H107        H  0.45730894  0.29343045  0.29508339     0.31900
O108        O  0.46966416  0.28063859  0.28197104    -1.32100
O109        O  0.33582057  0.49894775  0.19903630    -0.87500
O110        O  0.16434865  0.50283568  0.20125373    -0.87700
O111        O  0.24883564  0.45107186  0.16152283    -0.89400
O112        O  0.24765518  0.04928523  0.16241758    -0.88100
O113        O  0.24619076  0.08625704  0.19977150    -0.87700
O114        O  0.25072888  0.41366045  0.19837465    -0.89100
O115        O  0.19991162  0.50381309  0.16310913    -0.87600
O116        O  0.29943444  0.50041141  0.16162183    -0.87200
Zr117      Zr  0.25001307  0.50044340  0.18764336     2.84300
O118        O  0.21852985  0.03026959  0.21898794    -1.09100
O119        O  0.28126940  0.46903777  0.21783491    -1.09900
C120        C  0.32748417  0.49969024  0.17074181     1.05600
C121        C  0.17206126  0.50432742  0.17286440     1.05500
C122        C  0.24930046  0.42279171  0.17030979     1.08500
C123        C  0.24645775  0.07740317  0.17152756     1.06300
H124        H  0.20678616  0.45591944  0.20554084     0.31800
O125        O  0.21979048  0.46841192  0.21832199    -1.30100
H126        H  0.29267578  0.04447904  0.20633651     0.31500
O127        O  0.28021307  0.03142201  0.21906032    -1.31800
O128        O  0.16481474  0.49688226  0.30007996    -0.87500
O129        O  0.33793711  0.49901610  0.29828927    -0.89000
O130        O  0.20169625  0.41184058  0.25011694    -0.87600
O131        O  0.19850277  0.08636441  0.24943576    -0.87700
O132        O  0.29722654  0.08786328  0.24912453    -0.87400
O133        O  0.30125355  0.41293686  0.24830477    -0.87200
O134        O  0.25030383  0.44706134  0.33573655    -0.87500
O135        O  0.25095246  0.05029005  0.33691547    -0.87000
O136        O  0.25142135  0.41047131  0.29788431    -0.88100
O137        O  0.24991725  0.08717232  0.29961541    -0.87200
O138        O  0.16463625  0.44880440  0.24965074    -0.87600
O139        O  0.33782725  0.45052039  0.24921210    -0.87400
O140        O  0.33483763  0.05153508  0.25088843    -0.87000
O141        O  0.16232663  0.04848062  0.25055428    -0.87400
O142        O  0.20146067  0.49621876  0.33720324    -0.87700
O143        O  0.30201060  0.49754620  0.33607877    -0.89000
Zr144      Zr  0.18967157  0.49872074  0.25047180     2.83100
Zr145      Zr  0.31175955  0.49977315  0.24927150     2.83500
Zr146      Zr  0.25119799  0.43739392  0.24882256     2.84100
Zr147      Zr  0.24846013  0.06168180  0.24991732     2.83400
Zr148      Zr  0.25138270  0.49804739  0.31209131     2.84200
O149        O  0.28003354  0.03129705  0.28061693    -1.09600
O150        O  0.22066641  0.46750985  0.28067320    -1.09100
C151        C  0.17330812  0.49582531  0.32827364     1.05500
C152        C  0.33002925  0.49804664  0.32666259     1.08200
C153        C  0.17358125  0.42057715  0.25025785     1.05700
C154        C  0.17058489  0.07691803  0.24993045     1.06100
C155        C  0.32540799  0.07970365  0.25029180     1.05700
C156        C  0.32922501  0.42221701  0.24856570     1.05200
C157        C  0.25034079  0.41891732  0.32624820     1.05600
C158        C  0.25080370  0.07851242  0.32785406     1.05200
H159        H  0.29486780  0.45495880  0.29258381     0.31800
O160        O  0.28196547  0.46789694  0.28019939    -1.30700
H161        H  0.20552032  0.04332855  0.29450648     0.31900
O162        O  0.21838987  0.03079164  0.28165272    -1.32100
O163        O  0.19852575  0.16318350  0.50048146    -0.87500
O164        O  0.20140318  0.33810615  0.49931004    -0.87700
O165        O  0.16386094  0.25043843  0.05111994    -0.89400
O166        O  0.16371165  0.24774578  0.45108958    -0.88100
O167        O  0.20027183  0.24730059  0.41379590    -0.87700
O168        O  0.20082579  0.24990170  0.08798379    -0.89100
O169        O  0.16446470  0.30107357  0.49874574    -0.87600
O170        O  0.16182632  0.20066794  0.50339102    -0.87200
Zr171      Zr  0.18802427  0.25025656  0.50117515     2.84300
O172        O  0.21928490  0.28038926  0.46969970    -1.09100
O173        O  0.21906827  0.21812421  0.03109161    -1.09900
C174        C  0.17051860  0.17235029  0.50205043     1.05600
C175        C  0.17334573  0.32940138  0.49861800     1.05500
C176        C  0.17277229  0.25051090  0.07939990     1.08500
C177        C  0.17214270  0.24703741  0.42280510     1.06300
H178        H  0.20670650  0.29323290  0.04427292     0.31800
O179        O  0.21923469  0.28027931  0.03151569    -1.30100
H180        H  0.20595644  0.20530335  0.45781980     0.31500
O181        O  0.21851748  0.21833439  0.47049674    -1.31800
O182        O  0.30017766  0.33703381  0.49932897    -0.87500
O183        O  0.29839669  0.16192610  0.50351969    -0.89000
O184        O  0.25054092  0.29961105  0.08697006    -0.87600
O185        O  0.25033635  0.29751214  0.41297014    -0.87700
O186        O  0.25259236  0.19805581  0.41575833    -0.87400
O187        O  0.24588612  0.19804268  0.08570442    -0.87200
O188        O  0.33613624  0.24819891  0.05116550    -0.87500
O189        O  0.33634793  0.24757334  0.45181334    -0.87000
O190        O  0.29893713  0.24825318  0.08781450    -0.88100
O191        O  0.30000877  0.24710520  0.41441010    -0.87200
O192        O  0.25076484  0.33623757  0.04942287    -0.87600
O193        O  0.24587866  0.16083255  0.04853024    -0.87400
O194        O  0.25241628  0.16094221  0.45284112    -0.87000
O195        O  0.24950796  0.33579688  0.44906358    -0.87400
O196        O  0.33690081  0.29961321  0.50064447    -0.87700
O197        O  0.33559007  0.19891033  0.50177987    -0.89000
Zr198      Zr  0.25031634  0.31196909  0.49995953     2.83100
Zr199      Zr  0.24895086  0.18767315  0.50195927     2.83500
Zr200      Zr  0.24974648  0.24895066  0.06221933     2.84100
Zr201      Zr  0.25004049  0.24852743  0.43947530     2.83400
Zr202      Zr  0.31127094  0.24949629  0.50173022     2.84200
O203        O  0.28032903  0.21815264  0.47123310    -1.09600
O204        O  0.28084849  0.28019264  0.03192204    -1.09100
C205        C  0.32822666  0.32799237  0.49959548     1.05500
C206        C  0.32653292  0.17066722  0.50274788     1.08200
C207        C  0.25099902  0.32782177  0.07763554     1.05700
C208        C  0.25007488  0.32596461  0.42107636     1.06100
C209        C  0.25343277  0.16982560  0.42464696     1.05700
C210        C  0.24468877  0.16976254  0.07664377     1.05200
C211        C  0.32707162  0.24809710  0.07935336     1.05600
C212        C  0.32811223  0.24691771  0.42345309     1.05200
H213        H  0.29307437  0.20464643  0.04436017     0.31800
O214        O  0.28066677  0.21769951  0.03158917    -1.30700
H215        H  0.29390707  0.29249068  0.45677178     0.31900
O216        O  0.28105671  0.28012790  0.46977842    -1.32100
C217        C  0.22831155  0.09611789  0.12088345    -0.10200
C218        C  0.24539294  0.10128524  0.14760420     0.06000
C219        C  0.26175403  0.12890716  0.15058178    -0.04000
C220        C  0.26037528  0.15085227  0.12745457    -0.08400
C221        C  0.24346406  0.14587660  0.10068891     0.05100
C222        C  0.22723577  0.11800492  0.09745307    -0.03400
Br223      Br  0.20230891  0.10858985  0.06254540    -0.03100
H224        H  0.21556236  0.07499208  0.11828673     0.09000
H225        H  0.27361896  0.17159368  0.12995364     0.07000
Br226      Br  0.28878692  0.13696094  0.18419203    -0.03600
C227        C  0.26384587  0.40400008  0.11863741    -0.10200
C228        C  0.24857456  0.39886243  0.14635011     0.06000
C229        C  0.23333663  0.37073131  0.15077215    -0.04000
C230        C  0.23521770  0.34778575  0.12850139    -0.08400
C231        C  0.25096294  0.35256738  0.10096752     0.05100
C232        C  0.26488104  0.38145450  0.09587733    -0.03400
Br233      Br  0.28643131  0.39190828  0.05899967    -0.03100
H234        H  0.27539718  0.42560765  0.11475257     0.09000
H235        H  0.22329499  0.32644785  0.13227041     0.07000
Br236      Br  0.20713405  0.36332465  0.18523781    -0.03600
C237        C  0.26888902  0.36912998  0.34763804    -0.10200
C238        C  0.24920090  0.39444264  0.34982545     0.06000
C239        C  0.22891937  0.39608152  0.37483224    -0.04000
C240        C  0.22984975  0.37382958  0.39787355    -0.08400
C241        C  0.25013592  0.34907966  0.39623430     0.05100
C242        C  0.26947398  0.34654662  0.37049771    -0.03400
Br243      Br  0.29843026  0.31382548  0.36628791    -0.03100
H244        H  0.28440822  0.36728109  0.32844558     0.08600
H245        H  0.21402642  0.37542035  0.41680129     0.07000
Br246      Br  0.19762320  0.42661553  0.37741473    -0.03600
C247        C  0.23958623  0.15292717  0.37232267    -0.10200
C248        C  0.25429515  0.14625588  0.40008648     0.06000
C249        C  0.26917367  0.11769450  0.40316214    -0.04000
C250        C  0.26755873  0.09613838  0.37941532    -0.08400
C251        C  0.25216898  0.10258933  0.35191278     0.05100
C252        C  0.23866933  0.13179425  0.34830364    -0.03400
Br253      Br  0.21746248  0.14453322  0.31199101    -0.03100
H254        H  0.22822449  0.17476665  0.36931346     0.09000
H255        H  0.27904228  0.07434214  0.38226135     0.07000
Br256      Br  0.29414883  0.10739024  0.43773715    -0.03600
C257        C  0.36622837  0.15673383  0.26038084    -0.10200
C258        C  0.39542706  0.14986312  0.24889012     0.06000
C259        C  0.40076910  0.12004070  0.23733904    -0.04000
C260        C  0.37787543  0.09782118  0.23869930    -0.08400
C261        C  0.34882532  0.10446594  0.25031594     0.05100
C262        C  0.34295923  0.13463766  0.26090928    -0.03400
Br263      Br  0.30417600  0.14740472  0.27711363    -0.03100
H264        H  0.36143285  0.17942531  0.26924132     0.09000
H265        H  0.38268912  0.07524317  0.22973173     0.07000
Br266      Br  0.43785097  0.10823503  0.21707540    -0.03600
C267        C  0.37439249  0.34992400  0.23142564    -0.10200
C268        C  0.39995642  0.35371105  0.25045810     0.06000
C269        C  0.40228697  0.38067029  0.26829756    -0.04000
C270        C  0.37905560  0.40264110  0.26733840    -0.08400
C271        C  0.35341591  0.39862147  0.24854817     0.05100
C272        C  0.35153599  0.37226299  0.22996193    -0.03400
Br273      Br  0.31979683  0.36706230  0.20010022    -0.03100
H274        H  0.37259115  0.32984827  0.21691016     0.09000
H275        H  0.38088125  0.42286279  0.28166114     0.07000
Br276      Br  0.43574664  0.38840908  0.29549476    -0.03600
C277        C  0.09598206  0.12001685  0.26245841    -0.10200
C278        C  0.10074900  0.14669254  0.24511232     0.06000
C279        C  0.12856049  0.14990022  0.22909558    -0.04000
C280        C  0.15093350  0.12710940  0.23130598    -0.08400
C281        C  0.14628747  0.10062067  0.24897165     0.05100
C282        C  0.11842324  0.09732487  0.26480166    -0.03400
Br283      Br  0.11058088  0.06399665  0.29236699    -0.03100
H284        H  0.07504908  0.11728576  0.27530043     0.09000
H285        H  0.17195752  0.12988775  0.21862041     0.07000
Br286      Br  0.13688161  0.18365096  0.20219579    -0.03600
C287        C  0.12970263  0.34645356  0.26505650    -0.10200
C288        C  0.10222024  0.35220534  0.24971081     0.06000
C289        C  0.09859524  0.38055411  0.23442336    -0.04000
C290        C  0.12194320  0.40238970  0.23532629    -0.08400
C291        C  0.14952133  0.39658737  0.25057567     0.05100
C292        C  0.15323887  0.36808745  0.26552626    -0.03400
Br293      Br  0.18909897  0.35731681  0.28823073    -0.03100
H294        H  0.13284639  0.32499671  0.27711492     0.09000
H295        H  0.11879634  0.42379564  0.22322337     0.07000
Br296      Br  0.06367941  0.39020588  0.20968998    -0.03600
C297        C  0.38018280  0.25931635  0.09596507    -0.10200
C298        C  0.35094018  0.24859605  0.10362269     0.06000
C299        C  0.34531651  0.23998970  0.13439864    -0.04000
C300        C  0.36890373  0.24094091  0.15588635    -0.08400
C301        C  0.39814165  0.25147204  0.14811597     0.05100
C302        C  0.40332921  0.26158489  0.11784583    -0.03400
Br303      Br  0.44013785  0.28180023  0.10526405    -0.03100
H304        H  0.38488174  0.26725405  0.07296121     0.09000
H305        H  0.36416205  0.23344017  0.17903161     0.07000
Br306      Br  0.30637977  0.22693154  0.14966443    -0.03600
C307        C  0.13127613  0.25784648  0.15614222    -0.10200
C308        C  0.10143647  0.24958053  0.14796799     0.06000
C309        C  0.09556773  0.24130526  0.11721540    -0.04000
C310        C  0.11890276  0.24278811  0.09551968    -0.08400
C311        C  0.14884982  0.25084322  0.10364865     0.05100
C312        C  0.15491627  0.25808979  0.13473919    -0.03400
Br313      Br  0.19437598  0.26872756  0.15064583    -0.03100
H314        H  0.13647091  0.26413823  0.17956330     0.09000
H315        H  0.11359744  0.23655701  0.07212716     0.07000
Br316      Br  0.05718473  0.22535878  0.10311180    -0.03600
C317        C  0.09485003  0.24953677  0.38214524    -0.10200
C318        C  0.10270598  0.24235103  0.35183893     0.06000
C319        C  0.13338058  0.23430812  0.34566896    -0.04000
C320        C  0.15534346  0.23602386  0.36898558    -0.08400
C321        C  0.14771208  0.24525169  0.39893862     0.05100
C322        C  0.11669254  0.25175537  0.40532468    -0.03400
Br323      Br  0.10175956  0.26581850  0.44432994    -0.03100
H324        H  0.07141272  0.25425875  0.38793620     0.09000
H325        H  0.17859503  0.22974060  0.36358054     0.07000
Br326      Br  0.14686352  0.21853032  0.30682681    -0.03600
C327        C  0.40568387  0.24769945  0.38243287    -0.10200
C328        C  0.39714368  0.24711445  0.35144348     0.06000
C329        C  0.36552016  0.24573550  0.34455384    -0.04000
C330        C  0.34399424  0.24482832  0.36827500    -0.08400
C331        C  0.35254837  0.24621600  0.39932779     0.05100
C332        C  0.38416475  0.24759823  0.40608982    -0.03400
Br333      Br  0.40086464  0.25029579  0.44667925    -0.03100
H334        H  0.42954429  0.24879323  0.38860159     0.09000
H335        H  0.32013688  0.24358929  0.36211575     0.07000
Br336      Br  0.34897368  0.24578129  0.30371027    -0.03600
C337        C  0.37274830  0.40135933  0.48241660    -0.10200
C338        C  0.39864632  0.39671188  0.00291983     0.06000
C339        C  0.40254123  0.36775741  0.01707896    -0.04000
C340        C  0.37908016  0.34600582  0.01612120    -0.08400
C341        C  0.35138727  0.35202376  0.00121276     0.05100
C342        C  0.35001112  0.37873399  0.48100542    -0.03400
Br343      Br  0.31760534  0.38451289  0.45199413    -0.03100
H344        H  0.37075401  0.42140362  0.46795170     0.09000
H345        H  0.38248403  0.32419755  0.02746982     0.07000
Br346      Br  0.43852865  0.35625482  0.03928385    -0.03600
C347        C  0.37341423  0.09921890  0.01557539    -0.10200
C348        C  0.39944183  0.10368835  0.99740451     0.06000
C349        C  0.39888677  0.12826700  0.48121446    -0.04000
C350        C  0.37571850  0.15034796  0.48278845    -0.08400
C351        C  0.35214495  0.14785341  0.99876735     0.05100
C352        C  0.34977183  0.12070201  0.01614474    -0.03400
Br353      Br  0.31541787  0.11190432  0.04196881    -0.03100
H354        H  0.37148293  0.07885825  0.02962476     0.09000
H355        H  0.37713762  0.17036150  0.46818627     0.07000
Br356      Br  0.43064505  0.13432777  0.45158552    -0.03600
C357        C  0.11934038  0.34473194  0.00203878    -0.10200
C358        C  0.15017521  0.35305646  0.00043109     0.06000
C359        C  0.15468676  0.38460796  0.49127793    -0.04000
C360        C  0.13081844  0.40577094  0.49238585    -0.08400
C361        C  0.10334454  0.39830444  0.00090655     0.05100
C362        C  0.09612592  0.36657930  0.00213326    -0.03400
Br363      Br  0.05548548  0.35003205  0.00376758    -0.03100
H364        H  0.11293700  0.32078435  0.00321057     0.09000
H365        H  0.13573087  0.42939158  0.48654263     0.07000
Br366      Br  0.19347921  0.40071543  0.47867159    -0.03600
C367        C  0.14613115  0.12692966  0.97522163    -0.10200
C368        C  0.14845832  0.14745197  0.99985804     0.06000
C369        C  0.12754793  0.14318713  0.52729099    -0.04000
C370        C  0.10544399  0.12002354  0.52631864    -0.08400
C371        C  0.10335805  0.10147734  0.99979224     0.05100
C372        C  0.12386894  0.10393256  0.97510806    -0.03400
Br373      Br  0.12153180  0.07723374  0.94025080    -0.03100
H374        H  0.16150680  0.12896374  0.95593381     0.09000
H375        H  0.09129246  0.11596604  0.54622885     0.07000
Br376      Br  0.13145813  0.16618954  0.56445570    -0.03600
C377        C  0.40793091  0.50022734  0.36697976    -0.10200
C378        C  0.39755313  0.00210758  0.39844735     0.06000
C379        C  0.36657550  0.99542014  0.40478166    -0.04000
C380        C  0.34497216  0.99638494  0.38133920    -0.08400
C381        C  0.35302557  0.00339147  0.35103775     0.05100
C382        C  0.38630576  0.49980725  0.34335226    -0.03400
Br383      Br  0.40258539  0.50228359  0.30249751    -0.03100
H384        H  0.43171701  0.50256032  0.36084183     0.09000
H385        H  0.32160088  0.99077251  0.38694300     0.07000
Br386      Br  0.35136427  0.98293907  0.44413165    -0.03600
C387        C  0.09553134  0.98763102  0.36852582    -0.10200
C388        C  0.10316631  0.99506755  0.39889223     0.06000
C389        C  0.13583920  0.49913960  0.40667257    -0.04000
C390        C  0.15731266  0.49938106  0.38298751    -0.08400
C391        C  0.14836757  0.99360411  0.35215109     0.05100
C392        C  0.11754503  0.98653084  0.34537031    -0.03400
Br393      Br  0.10323268  0.97414979  0.30554994    -0.03100
H394        H  0.07214365  0.98240614  0.36259770     0.09000
H395        H  0.18091373  0.50360352  0.38884554     0.07000
Br396      Br  0.15226954  0.50575079  0.44693165    -0.03600
C397        C  0.15405194  0.51692694  0.12005332    -0.10200
C398        C  0.14765301  0.00113646  0.14907640     0.06000
C399        C  0.11695515  0.99341481  0.15551701    -0.04000
C400        C  0.09510148  0.99466575  0.13234759    -0.08400
C401        C  0.10276711  0.00301519  0.10228244     0.05100
C402        C  0.13176526  0.51852769  0.09716645    -0.03400
Br403      Br  0.14384387  0.53666375  0.05895541    -0.03100
H404        H  0.17699288  0.52421611  0.11455865     0.09000
H405        H  0.07191127  0.98828451  0.13791108     0.07000
Br406      Br  0.10261299  0.97941770  0.19465428    -0.03600
C407        C  0.34509629  0.99396094  0.11861479    -0.10200
C408        C  0.35267712  0.00173771  0.14886028     0.06000
C409        C  0.38242976  0.50823923  0.15347598    -0.04000
C410        C  0.40436173  0.50811011  0.13035489    -0.08400
C411        C  0.39748528  0.00192825  0.10165288     0.05100
C412        C  0.36695260  0.99340541  0.09534787    -0.03400
Br413      Br  0.35313919  0.97811480  0.05647320    -0.03100
H414        H  0.32200150  0.98726276  0.11300758     0.09000
H415        H  0.42723793  0.51556576  0.13593212     0.07000
Br416      Br  0.39681768  0.52072675  0.19302790    -0.03600
C417        C  0.01298221  0.15239429  0.37839832    -0.10200
C418        C  0.99840762  0.14600438  0.35046134     0.06000
C419        C  0.48256253  0.11706116  0.34707326    -0.04000
C420        C  0.48393096  0.09510079  0.37037632    -0.08400
C421        C  0.00036661  0.10174662  0.39784671     0.05100
C422        C  0.01390317  0.13085456  0.40202940    -0.03400
Br423      Br  0.03512063  0.14268623  0.43870666    -0.03100
H424        H  0.02406430  0.17432074  0.38186825     0.09000
H425        H  0.47223617  0.07345619  0.36714235     0.07000
Br426      Br  0.45819210  0.10718843  0.31187760    -0.03600
C427        C  0.01488963  0.36865172  0.40513020    -0.10200
C428        C  0.99843724  0.39578424  0.40054676     0.06000
C429        C  0.50193103  0.40395675  0.36786312    -0.04000
C430        C  0.50336640  0.38045833  0.34615724    -0.08400
C431        C  0.00111766  0.35020284  0.35421575     0.05100
C432        C  0.01643273  0.34609990  0.38237327    -0.03400
Br433      Br  0.04168901  0.31141569  0.39067662    -0.03100
H434        H  0.02737212  0.36530140  0.42626006     0.09000
H435        H  0.50032369  0.38653406  0.32234395     0.07000
Br436      Br  0.49321095  0.44406271  0.35169787    -0.03600
C437        C  0.02081960  0.37449390  0.10077249    -0.10200
C438        C  0.00104229  0.39958761  0.10353577     0.06000
C439        C  0.48158510  0.40125728  0.12983098    -0.04000
C440        C  0.48312979  0.37882637  0.15270273    -0.08400
C441        C  0.00173057  0.35292828  0.14848462     0.05100
C442        C  0.02125239  0.35124272  0.12280177    -0.03400
Br443      Br  0.05015376  0.31874389  0.11708794    -0.03100
H444        H  0.03626069  0.37309572  0.08146622     0.09000
H445        H  0.46893214  0.38117536  0.17285156     0.07000
Br446      Br  0.45237558  0.43361443  0.13489985    -0.03600
C447        C  0.02661060  0.12724411  0.14765038    -0.10200
C448        C  0.00465814  0.15057080  0.14619189     0.06000
C449        C  0.48449597  0.15116525  0.12107543    -0.04000
C450        C  0.48583421  0.12832201  0.09873674    -0.08400
C451        C  0.00670782  0.10457472  0.10083545     0.05100
C452        C  0.02833902  0.10480576  0.12475102    -0.03400
Br453      Br  0.06242907  0.07728892  0.12555962    -0.03100
H454        H  0.04298054  0.12699542  0.16621685     0.09000
H455        H  0.47022710  0.12934743  0.07955447     0.07000
Br456      Br  0.45498104  0.18323959  0.11579001    -0.03600
O457        O  0.00150301  0.05036525  0.58754425    -0.87500
O458        O  0.00392858  0.04885511  0.91301629    -0.87700
O459        O  0.04986630  0.08725510  0.50102007    -0.89400
O460        O  0.44979535  0.08708566  0.49922345    -0.88100
O461        O  0.41295302  0.04979079  0.50052467    -0.87700
O462        O  0.08662900  0.04978685  0.49854969    -0.89100
O463        O  0.00512120  0.08685861  0.94947214    -0.87600
O464        O  0.00021967  0.08744747  0.55023400    -0.87200
Zr465      Zr  0.00018087  0.06220871  0.50007957     2.84300
O466        O  0.47031652  0.03208505  0.96898500    -1.09100
O467        O  0.03083517  0.03091895  0.53066471    -1.09900
C468        C  0.00128700  0.07859594  0.57847482     1.05600
C469        C  0.00555167  0.07714374  0.92149270     1.05500
C470        C  0.07780293  0.07806525  0.49980986     1.08500
C471        C  0.42170271  0.07807609  0.49962047     1.06300
H472        H  0.04523909  0.04319472  0.95645334     0.31800
O473        O  0.03200893  0.03098853  0.96923502    -1.30100
H474        H  0.45593892  0.04371377  0.54440152     0.31500
O475        O  0.46868526  0.03102782  0.53154452    -1.31800
O476        O  0.00294152  0.44837518  0.91498762    -0.87500
O477        O  0.99912775  0.45158876  0.58998732    -0.89000
O478        O  0.08750647  0.99771713  0.95140984    -0.87600
O479        O  0.41486749  0.00362116  0.94986228    -0.87700
O480        O  0.41289114  0.99840481  0.54928928    -0.87400
O481        O  0.08679676  0.00110401  0.54886788    -0.87200
O482        O  0.04883559  0.41231238  0.50121009    -0.87500
O483        O  0.45054377  0.41314293  0.50219495    -0.87000
O484        O  0.08584115  0.44921968  0.50174237    -0.88100
O485        O  0.41372109  0.45035846  0.50027868    -0.87200
O486        O  0.05115311  0.99639971  0.91403652    -0.87600
O487        O  0.05019985  0.00252406  0.58616896    -0.87400
O488        O  0.44961569  0.99676770  0.58635811    -0.87000
O489        O  0.45096828  0.00245998  0.91222080    -0.87400
O490        O  0.00163477  0.41152253  0.95233688    -0.87700
O491        O  0.00029043  0.41348638  0.55358897    -0.89000
Zr492      Zr  0.00086679  0.99979483  0.93870763     2.83100
Zr493      Zr  0.00000330  0.00044418  0.56191382     2.83500
Zr494      Zr  0.06132704  0.99968527  0.49970536     2.84100
Zr495      Zr  0.43831631  0.99994761  0.50015075     2.83400
Zr496      Zr  0.99942641  0.43747043  0.50270648     2.84200
O497        O  0.46967998  0.46964985  0.53228793    -1.09600
O498        O  0.03244215  0.46894628  0.97003895    -1.09100
C499        C  0.00213097  0.42019998  0.92406128     1.05500
C500        C  0.99955882  0.42312097  0.58163508     1.08200
C501        C  0.07926924  0.99608570  0.92315816     1.05700
C502        C  0.42292711  0.00354319  0.92150943     1.06100
C503        C  0.42148493  0.99657060  0.57738831     1.05700
C504        C  0.07826148  0.00264315  0.57702747     1.05200
C505        C  0.07691614  0.42098189  0.50126008     1.05600
C506        C  0.42244748  0.42205600  0.50146274     1.05200
H507        H  0.04341109  0.45635879  0.54596887     0.31800
O508        O  0.03072401  0.46895321  0.53297632    -1.30700
H509        H  0.45676530  0.45521724  0.95643944     0.31900
O510        O  0.46957653  0.46808793  0.96906332    -1.32100
O511        O  0.99904901  0.20108328  0.66339014    -0.87500
O512        O  0.00174639  0.19673955  0.83674713    -0.87700
O513        O  0.04804111  0.16139856  0.74801916    -0.89400
O514        O  0.44766073  0.16414484  0.75110059    -0.88100
O515        O  0.41125567  0.20186079  0.75149305    -0.87700
O516        O  0.08530367  0.19832927  0.74911101    -0.89100
O517        O  0.00066622  0.16049153  0.79860097    -0.87600
O518        O  0.00023367  0.16309261  0.69974475    -0.87200
Zr519      Zr  0.99866814  0.18732114  0.74992259     2.84300
O520        O  0.46836159  0.21947246  0.78152447    -1.09100
O521        O  0.02951747  0.21900378  0.71996690    -1.09900
C522        C  0.99985821  0.17269419  0.67181149     1.05600
C523        C  0.00182046  0.16875482  0.82694048     1.05500
C524        C  0.07620458  0.17013487  0.74772924     1.08500
C525        C  0.41964922  0.17341661  0.75132592     1.06300
H526        H  0.04307159  0.20407836  0.79375199     0.31800
O527        O  0.03019188  0.21715545  0.78148390    -1.30100
H528        H  0.45444617  0.20731313  0.70636837     0.31500
O529        O  0.46762526  0.21966090  0.71910063    -1.31800
O530        O  0.00024919  0.29722676  0.83897818    -0.87500
O531        O  0.00027253  0.30117631  0.66554369    -0.89000
O532        O  0.08597728  0.24869390  0.80141205    -0.87600
O533        O  0.41337378  0.25128436  0.80031881    -0.87700
O534        O  0.41287641  0.25492904  0.70113241    -0.87400
O535        O  0.08559676  0.24815399  0.70116862    -0.87200
O536        O  0.04906558  0.33608349  0.75298581    -0.87500
O537        O  0.45090276  0.33805224  0.75036727    -0.87000
O538        O  0.08593801  0.29916576  0.75275606    -0.88100
O539        O  0.41368344  0.30140918  0.75153915    -0.87200
O540        O  0.04936363  0.24800169  0.83884744    -0.87600
O541        O  0.04856791  0.24928637  0.66427814    -0.87400
O542        O  0.44932736  0.25458424  0.66370463    -0.87000
O543        O  0.45015281  0.24871918  0.83729734    -0.87400
O544        O  0.00099654  0.33516456  0.80269201    -0.87700
O545        O  0.99845132  0.33760826  0.70351727    -0.89000
Zr546      Zr  0.99969124  0.24753801  0.81327091     2.83100
Zr547      Zr  0.99904224  0.25059470  0.68950747     2.83500
Zr548      Zr  0.06098508  0.24884008  0.75132078     2.84100
Zr549      Zr  0.43808189  0.25116830  0.75073899     2.83400
Zr550      Zr  0.99962955  0.31086633  0.75258392     2.84200
O551        O  0.46883221  0.28192089  0.71967060    -1.09600
O552        O  0.03031947  0.27916939  0.78291110    -1.09100
C553        C  0.00115726  0.32562817  0.83067265     1.05500
C554        C  0.99947002  0.32921122  0.67516822     1.08200
C555        C  0.07741393  0.24869447  0.82973209     1.05700
C556        C  0.42197831  0.24964518  0.82843281     1.06100
C557        C  0.42140205  0.25607393  0.67282318     1.05700
C558        C  0.07665939  0.24825305  0.67293310     1.05200
C559        C  0.07715535  0.32753269  0.75303176     1.05600
C560        C  0.42272565  0.32962079  0.75109659     1.05200
H561        H  0.04325505  0.29360843  0.70833415     0.31800
O562        O  0.03048400  0.28067386  0.72084768    -1.30700
H563        H  0.45700824  0.29419356  0.79503417     0.31900
O564        O  0.46942723  0.28134228  0.78204985    -1.32100
O565        O  0.33551455  0.49877377  0.70011762    -0.87500
O566        O  0.16325076  0.50007586  0.70024235    -0.87700
O567        O  0.24985087  0.45041791  0.66351339    -0.89400
O568        O  0.24805505  0.04925458  0.66220592    -0.88100
O569        O  0.24716730  0.08612659  0.69974014    -0.87700
O570        O  0.24886127  0.41332490  0.70084230    -0.89100
O571        O  0.20015868  0.50164780  0.66299690    -0.87600
O572        O  0.29934177  0.49977630  0.66262008    -0.87200
Zr573      Zr  0.24970869  0.50034643  0.68835418     2.84300
O574        O  0.21852718  0.02972274  0.71828627    -1.09100
O575        O  0.28027139  0.46908562  0.71915652    -1.09900
C576        C  0.32737521  0.49912497  0.67182259     1.05600
C577        C  0.17215078  0.50083650  0.67204171     1.05500
C578        C  0.24909971  0.42228160  0.67261855     1.08500
C579        C  0.24744483  0.07738468  0.67155600     1.06300
H580        H  0.20621065  0.45627307  0.70655854     0.31800
O581        O  0.21898076  0.46911082  0.71923324    -1.30100
H582        H  0.29270338  0.04404396  0.70557030     0.31500
O583        O  0.28009016  0.03110589  0.71827529    -1.31800
O584        O  0.16365983  0.49922883  0.79967964    -0.87500
O585        O  0.33742431  0.50194061  0.79807595    -0.89000
O586        O  0.20119667  0.41227637  0.75106277    -0.87600
O587        O  0.19823544  0.08608728  0.74816306    -0.87700
O588        O  0.29686963  0.08819052  0.75088803    -0.87400
O589        O  0.29869775  0.41313230  0.75154810    -0.87200
O590        O  0.24840504  0.45195459  0.83841785    -0.87500
O591        O  0.25016311  0.05052622  0.83614922    -0.87000
O592        O  0.24691726  0.41466373  0.80157905    -0.88100
O593        O  0.24919517  0.08718368  0.79872225    -0.87200
O594        O  0.16426460  0.44909869  0.75103468    -0.87600
O595        O  0.33549912  0.45018208  0.74993073    -0.87400
O596        O  0.33447080  0.05167630  0.75043000    -0.87000
O597        O  0.16228438  0.04797217  0.74849627    -0.87400
O598        O  0.20037768  0.50000527  0.83676939    -0.87700
O599        O  0.30125862  0.50219057  0.83562390    -0.89000
Zr600      Zr  0.18839640  0.50001028  0.75011554     2.83100
Zr601      Zr  0.31078384  0.50040832  0.74973192     2.83500
Zr602      Zr  0.24967515  0.43866781  0.75084426     2.84100
Zr603      Zr  0.24828060  0.06137585  0.74931936     2.83400
Zr604      Zr  0.25032387  0.50102597  0.81211460     2.84200
O605        O  0.27989305  0.03141570  0.78018208    -1.09600
O606        O  0.21926922  0.46989697  0.78153410    -1.09100
C607        C  0.17227962  0.49908610  0.82784172     1.05500
C608        C  0.32933645  0.50255832  0.82634097     1.08200
C609        C  0.17314580  0.42072848  0.75129919     1.05700
C610        C  0.17036207  0.07646206  0.74819637     1.06100
C611        C  0.32505835  0.07983628  0.75130546     1.05700
C612        C  0.32670239  0.42186597  0.75059179     1.05200
C613        C  0.24658705  0.42371132  0.82985224     1.05600
C614        C  0.25001281  0.07870886  0.82698369     1.05200
H615        H  0.29359711  0.45683007  0.79444678     0.31800
O616        O  0.28087042  0.46948106  0.78158365    -1.30700
H617        H  0.20501336  0.04307682  0.79343950     0.31900
O618        O  0.21797695  0.03049674  0.78072766    -1.32100
O619        O  0.20011559  0.16229862  0.99745126    -0.87500
O620        O  0.20163149  0.33626694  0.00115933    -0.87700
O621        O  0.16310054  0.25145752  0.55155798    -0.89400
O622        O  0.16314210  0.24820597  0.95111538    -0.88100
O623        O  0.19996176  0.24765301  0.91377353    -0.87700
O624        O  0.19995643  0.25066557  0.58855379    -0.89100
O625        O  0.16417058  0.30002806  0.99960381    -0.87600
O626        O  0.16325851  0.19950154  0.00161898    -0.87200
Zr627      Zr  0.18836284  0.24943248  0.00067809     2.84300
O628        O  0.21918631  0.28013191  0.96954770    -1.09100
O629        O  0.21832226  0.21937628  0.53242097    -1.09900
C630        C  0.17217015  0.17133507  0.99954072     1.05600
C631        C  0.17351230  0.32820157  0.00032293     1.05500
C632        C  0.17190531  0.25122432  0.57988878     1.08500
C633        C  0.17186568  0.24731268  0.92291410     1.06300
H634        H  0.20617537  0.29495635  0.54390344     0.31800
O635        O  0.21885621  0.28187364  0.53142636    -1.30100
H636        H  0.20652485  0.20557370  0.95636602     0.31500
O637        O  0.21903946  0.21842787  0.96926403    -1.31800
O638        O  0.29942309  0.33647322  0.00032820    -0.87500
O639        O  0.30003349  0.16286243  0.99978976    -0.89000
O640        O  0.24807181  0.30127629  0.58741210    -0.87600
O641        O  0.24619971  0.29975727  0.91477251    -0.87700
O642        O  0.25317975  0.19955685  0.91363419    -0.87400
O643        O  0.24763992  0.20076473  0.58849930    -0.87200
O644        O  0.33578661  0.25211512  0.55197359    -0.87500
O645        O  0.33687717  0.24898637  0.95173219    -0.87000
O646        O  0.29819737  0.25369911  0.58816815    -0.88100
O647        O  0.30050919  0.25059369  0.91425537    -0.87200
O648        O  0.25077230  0.33790652  0.54975317    -0.87600
O649        O  0.24562199  0.16321824  0.55169332    -0.87400
O650        O  0.25261397  0.16210340  0.95035498    -0.87000
O651        O  0.24768631  0.33716528  0.95133690    -0.87400
O652        O  0.33640421  0.29952164  0.00169396    -0.87700
O653        O  0.33710795  0.19992161  0.99915886    -0.89000
Zr654      Zr  0.25033953  0.31064571  0.00033633     2.83100
Zr655      Zr  0.24984838  0.18735156  0.99987463     2.83500
Zr656      Zr  0.24904510  0.25081925  0.56285576     2.84100
Zr657      Zr  0.25008992  0.24940891  0.93864375     2.83400
Zr658      Zr  0.31145274  0.24928111  0.00104675     2.84200
O659        O  0.28073913  0.21861162  0.96967946    -1.09600
O660        O  0.28035212  0.28118785  0.53179479    -1.09100
C661        C  0.32749052  0.32780228  0.00092673     1.05500
C662        C  0.32814608  0.17173183  0.99930988     1.08200
C663        C  0.24952397  0.32937478  0.57808117     1.05700
C664        C  0.24620346  0.32811141  0.92321120     1.06100
C665        C  0.25385467  0.17123956  0.92232652     1.05700
C666        C  0.24572749  0.17243468  0.57973622     1.05200
C667        C  0.32639571  0.25375938  0.58001765     1.05600
C668        C  0.32859638  0.24995405  0.92347123     1.05200
H669        H  0.29247127  0.20628683  0.54614049     0.31800
O670        O  0.28003151  0.21887034  0.53293675    -1.30700
H671        H  0.29389435  0.29325261  0.95664785     0.31900
O672        O  0.28131509  0.28028225  0.96933120    -1.32100
C673        C  0.22775515  0.09886922  0.62290591    -0.10200
C674        C  0.24705560  0.10174617  0.64826287     0.06000
C675        C  0.26525640  0.12822726  0.65128398    -0.04000
C676        C  0.26378836  0.15128991  0.62916759    -0.08400
C677        C  0.24465556  0.14843645  0.60361950     0.05100
C678        C  0.22632405  0.12189299  0.60072221    -0.03400
Br679      Br  0.19776089  0.11605038  0.56804037    -0.03100
H680        H  0.21333659  0.07882273  0.62059250     0.09000
H681        H  0.27846463  0.17111295  0.63144226     0.07000
Br682      Br  0.29429940  0.13310473  0.68382839    -0.03600
C683        C  0.27027750  0.39993224  0.62495289    -0.10200
C684        C  0.24870063  0.39853213  0.64857171     0.06000
C685        C  0.22673299  0.37502089  0.64822552    -0.04000
C686        C  0.22748601  0.35264355  0.62521688    -0.08400
C687        C  0.24944248  0.35363785  0.60184949     0.05100
C688        C  0.27078371  0.37784222  0.60169088    -0.03400
Br689      Br  0.30208992  0.38117433  0.57123904    -0.03100
H690        H  0.28709289  0.41812443  0.62480608     0.09000
H691        H  0.21023256  0.33495494  0.62497721     0.07000
Br692      Br  0.19349923  0.37438113  0.67666986    -0.03600
C693        C  0.25232166  0.36934516  0.84628612    -0.10200
C694        C  0.24463174  0.39961952  0.85409374     0.06000
C695        C  0.23561836  0.40573372  0.88469165    -0.04000
C696        C  0.23613884  0.38218958  0.90657150    -0.08400
C697        C  0.24475176  0.35204940  0.89882124     0.05100
C698        C  0.25227123  0.34575581  0.86790134    -0.03400
Br699      Br  0.26405591  0.30599120  0.85283432    -0.03100
H700        H  0.25902102  0.36384332  0.82306616     0.08600
H701        H  0.22944413  0.38754652  0.92983049     0.07000
Br702      Br  0.22073592  0.44495565  0.89831999    -0.03600
C703        C  0.24130334  0.15448329  0.86973137    -0.10200
C704        C  0.25478951  0.14759141  0.89798828     0.06000
C705        C  0.26778348  0.11826236  0.90226183    -0.04000
C706        C  0.26568019  0.09629867  0.87895215    -0.08400
C707        C  0.25148519  0.10299718  0.85084292     0.05100
C708        C  0.23964060  0.13282703  0.84628248    -0.03400
Br709      Br  0.21944224  0.14593799  0.80954170    -0.03100
H710        H  0.23123357  0.17683674  0.86596540     0.09000
H711        H  0.27580297  0.07396203  0.88267583     0.07000
Br712      Br  0.29053420  0.10723741  0.93823873    -0.03600
C713        C  0.36875268  0.15374238  0.76872652    -0.10200
C714        C  0.39530093  0.14954725  0.75119626     0.06000
C715        C  0.39784354  0.12264672  0.73338514    -0.04000
C716        C  0.37507822  0.10022540  0.73445855    -0.08400
C717        C  0.34861468  0.10432567  0.75195546     0.05100
C718        C  0.34528468  0.13182009  0.76887045    -0.03400
Br719      Br  0.30981075  0.14061028  0.79315686    -0.03100
H720        H  0.36632680  0.17408553  0.78255784     0.09000
H721        H  0.37759859  0.07983676  0.72050837     0.07000
Br722      Br  0.43017529  0.11642397  0.70453642    -0.03600
C723        C  0.36880834  0.34552458  0.74269936    -0.10200
C724        C  0.39864763  0.35379910  0.75113233     0.06000
C725        C  0.40425244  0.38470917  0.75942215    -0.04000
C726        C  0.38050478  0.40605917  0.75904244    -0.08400
C727        C  0.35073433  0.39777838  0.75059253     0.05100
C728        C  0.34504181  0.36687665  0.74232107    -0.03400
Br729      Br  0.30603348  0.35172361  0.72895901    -0.03100
H730        H  0.36380201  0.32216797  0.73591335     0.09000
H731        H  0.38546502  0.42943116  0.76582590     0.07000
Br732      Br  0.44309492  0.40000537  0.77273629    -0.03600
C733        C  0.09592578  0.11892399  0.76357080    -0.10200
C734        C  0.09992501  0.14584066  0.74641550     0.06000
C735        C  0.12681481  0.14919096  0.72897971    -0.04000
C736        C  0.14952100  0.12659123  0.73010783    -0.08400
C737        C  0.14577296  0.09991833  0.74775361     0.05100
C738        C  0.11844034  0.09616332  0.76443623    -0.03400
Br739      Br  0.11130025  0.06162769  0.79071385    -0.03100
H740        H  0.07547877  0.11591878  0.77712244     0.09000
H741        H  0.16996881  0.12959162  0.71655602     0.07000
Br742      Br  0.13275732  0.18285879  0.70131858    -0.03600
C743        C  0.13203042  0.34294483  0.75287934    -0.10200
C744        C  0.10125624  0.35190529  0.75297492     0.06000
C745        C  0.09475357  0.38379587  0.75251657    -0.04000
C746        C  0.11848814  0.40516835  0.75168953    -0.08400
C747        C  0.14923275  0.39623620  0.75188341     0.05100
C748        C  0.15581061  0.36432953  0.75277594    -0.03400
Br749      Br  0.19615218  0.34698818  0.75420422    -0.03100
H750        H  0.13793408  0.31886157  0.75286100     0.09000
H751        H  0.11255848  0.42924836  0.75102902     0.07000
Br752      Br  0.05448356  0.40113587  0.75303560    -0.03600
C753        C  0.37918439  0.26653225  0.59698968    -0.10200
C754        C  0.34983130  0.25608209  0.60460929     0.06000
C755        C  0.34381359  0.24839187  0.63554813    -0.04000
C756        C  0.36731278  0.24918518  0.65711315    -0.08400
C757        C  0.39701615  0.25819314  0.64918196     0.05100
C758        C  0.40246599  0.26817265  0.61884614    -0.03400
Br759      Br  0.44030516  0.28605161  0.60568590    -0.03100
H760        H  0.38407928  0.27393832  0.57384731     0.09000
H761        H  0.36225715  0.24205006  0.68030067     0.07000
Br762      Br  0.30463963  0.23568168  0.65070936    -0.03600
C763        C  0.13002662  0.25841460  0.65653839    -0.10200
C764        C  0.10069626  0.24811016  0.64881463     0.06000
C765        C  0.09525733  0.23870627  0.61826141    -0.04000
C766        C  0.11853348  0.24065206  0.59644549    -0.08400
C767        C  0.14791221  0.25090848  0.60414772     0.05100
C768        C  0.15346279  0.25978461  0.63489793    -0.03400
Br769      Br  0.19172480  0.27529837  0.64961264    -0.03100
H770        H  0.13483210  0.26595885  0.67967375     0.09000
H771        H  0.11363261  0.23339697  0.57325584     0.07000
Br772      Br  0.05742325  0.22130876  0.60448143    -0.03600
C773        C  0.09725945  0.23210536  0.88071047    -0.10200
C774        C  0.10165383  0.24887447  0.85359661     0.06000
C775        C  0.12952990  0.26467427  0.84963087    -0.04000
C776        C  0.15206735  0.26334549  0.87220331    -0.08400
C777        C  0.14770296  0.24660395  0.89918967     0.05100
C778        C  0.12001516  0.23051220  0.90318853    -0.03400
Br779      Br  0.11280301  0.20390765  0.93746414    -0.03100
H780        H  0.07634308  0.21936202  0.88406716     0.09000
H781        H  0.17298429  0.27611192  0.86888369     0.07000
Br782      Br  0.13805677  0.29012121  0.81497980    -0.03600
C783        C  0.40579418  0.25580366  0.88280428    -0.10200
C784        C  0.39773388  0.24924163  0.85238477     0.06000
C785        C  0.36670425  0.24282648  0.84587744    -0.04000
C786        C  0.34506283  0.24332824  0.86932506    -0.08400
C787        C  0.35306263  0.25002776  0.89972074     0.05100
C788        C  0.38414249  0.25624417  0.90630404    -0.03400
Br789      Br  0.39957088  0.26638338  0.94627545    -0.03100
H790        H  0.42923593  0.26104204  0.88849869     0.09000
H791        H  0.32163759  0.23806583  0.86357799     0.07000
Br792      Br  0.35126046  0.23237077  0.80606421    -0.03600
C793        C  0.37077089  0.40281571  0.98826535    -0.10200
C794        C  0.39836165  0.39796678  0.50144893     0.06000
C795        C  0.40060579  0.37134168  0.51969990    -0.04000
C796        C  0.37794229  0.34868944  0.51823094    -0.08400
C797        C  0.35233246  0.35205901  0.49923708     0.05100
C798        C  0.34740276  0.38094241  0.98709612    -0.03400
Br799      Br  0.31163083  0.39171139  0.96406842    -0.03100
H800        H  0.36732456  0.42459253  0.97688384     0.09000
H801        H  0.37993537  0.32866731  0.53274494     0.07000
Br802      Br  0.43271177  0.36577536  0.54904086    -0.03600
C803        C  0.37202064  0.09784358  0.51893186    -0.10200
C804        C  0.39744241  0.10184812  0.49978698     0.06000
C805        C  0.40130406  0.13026122  0.97908393    -0.04000
C806        C  0.37809658  0.15229757  0.98041097    -0.08400
C807        C  0.35045823  0.14654251  0.50221748     0.05100
C808        C  0.34866898  0.11973010  0.52027996    -0.03400
Br809      Br  0.31593018  0.11224258  0.54850134    -0.03100
H810        H  0.37052199  0.07771734  0.53336726     0.09000
H811        H  0.37988361  0.17259228  0.96623918     0.07000
Br812      Br  0.43317811  0.13617847  0.94954009    -0.03600
C813        C  0.11932109  0.34467740  0.50628904    -0.10200
C814        C  0.14916860  0.35340920  0.49848983     0.06000
C815        C  0.15752009  0.38476573  0.99903977    -0.04000
C816        C  0.13424890  0.40669949  0.99930136    -0.08400
C817        C  0.10102670  0.39701115  0.50037776     0.05100
C818        C  0.09543042  0.36578639  0.50716306    -0.03400
Br819      Br  0.05629021  0.34956170  0.51854012    -0.03100
H820        H  0.11433848  0.32108108  0.51213070     0.09000
H821        H  0.14059049  0.43066700  0.99812708     0.07000
Br822      Br  0.19835473  0.40086967  0.99660914    -0.03600
C823        C  0.14247912  0.13036826  0.47537772    -0.10200
C824        C  0.14652922  0.14841443  0.50175463     0.06000
C825        C  0.12840080  0.14451004  0.02482069    -0.04000
C826        C  0.10581192  0.12188506  0.02447783    -0.08400
C827        C  0.10155651  0.10198328  0.50005063     0.05100
C828        C  0.11990984  0.10757446  0.47426009    -0.03400
Br829      Br  0.11319356  0.08606323  0.43652583    -0.03100
H830        H  0.15647726  0.13446690  0.45537689     0.09000
H831        H  0.09056049  0.11974596  0.04385855     0.07000
Br832      Br  0.13271363  0.16918987  0.06090266    -0.03600
C833        C  0.40712376  0.50500622  0.86666094    -0.10200
C834        C  0.39802936  0.00482607  0.89802608     0.06000
C835        C  0.36700118  0.99878385  0.90512676    -0.04000
C836        C  0.34492730  0.99893528  0.88198180    -0.08400
C837        C  0.35226900  0.00594024  0.85148225     0.05100
C838        C  0.38551388  0.50540516  0.84303985    -0.03400
Br839      Br  0.40182579  0.50892097  0.80224607    -0.03100
H840        H  0.43097038  0.50661139  0.86052767     0.09000
H841        H  0.32168596  0.99326218  0.88806204     0.07000
Br842      Br  0.35202876  0.98997351  0.94560559    -0.03600
C843        C  0.09548004  0.98884763  0.86862521    -0.10200
C844        C  0.10380307  0.99396433  0.89934101     0.06000
C845        C  0.13543434  0.50341947  0.90618410    -0.04000
C846        C  0.15669996  0.50376209  0.88241276    -0.08400
C847        C  0.14822390  0.99377317  0.85160592     0.05100
C848        C  0.11718521  0.98763372  0.84512784    -0.03400
Br849      Br  0.10258329  0.97475190  0.80559431    -0.03100
H850        H  0.07184453  0.98501363  0.86271866     0.09000
H851        H  0.18023708  0.50854067  0.88808979     0.07000
Br852      Br  0.15179091  0.51057361  0.94646024    -0.03600
C853        C  0.14878870  0.52282283  0.62501918    -0.10200
C854        C  0.14755434  0.00187433  0.64748521     0.06000
C855        C  0.11710964  0.99290886  0.65363479    -0.04000
C856        C  0.09529080  0.99368886  0.63041977    -0.08400
C857        C  0.10243854  0.00377329  0.60081895     0.05100
C858        C  0.12621372  0.52340853  0.60235988    -0.03400
Br859      Br  0.12844092  0.55510876  0.57203722    -0.03100
H860        H  0.16661418  0.54001027  0.62473708     0.09000
H861        H  0.07245371  0.98586738  0.63562728     0.07000
Br862      Br  0.10285126  0.97843328  0.69263950    -0.03600
C863        C  0.34475060  0.98841617  0.61820381    -0.10200
C864        C  0.35267029  0.99576765  0.64854416     0.06000
C865        C  0.38301104  0.50516132  0.65523234    -0.04000
C866        C  0.40494133  0.50533937  0.63200103    -0.08400
C867        C  0.39735509  0.99480638  0.60131234     0.05100
C868        C  0.36653847  0.98748343  0.59482070    -0.03400
Br869      Br  0.35211554  0.97445121  0.55527074    -0.03100
H870        H  0.32135645  0.98296902  0.61250130     0.09000
H871        H  0.42819442  0.51096911  0.63807778     0.07000
Br872      Br  0.39802494  0.51416714  0.69565067    -0.03600
C873        C  0.02471635  0.14750023  0.87427568    -0.10200
C874        C  0.00386830  0.14431522  0.85008705     0.06000
C875        C  0.48299101  0.12066315  0.84999306    -0.04000
C876        C  0.48502662  0.09845989  0.87284546    -0.08400
C877        C  0.00669720  0.10000511  0.89681256     0.05100
C878        C  0.02646112  0.12546730  0.89744036    -0.03400
Br879      Br  0.05727236  0.13047805  0.92814073    -0.03100
H880        H  0.03985091  0.16711934  0.87503085     0.09000
H881        H  0.47062109  0.07832977  0.87136136     0.07000
Br882      Br  0.45348962  0.11379795  0.81831140    -0.03600
C883        C  0.01640110  0.36791094  0.90551498    -0.10200
C884        C  0.00163423  0.39602570  0.90013403     0.06000
C885        C  0.47857089  0.39703237  0.87489764    -0.04000
C886        C  0.48004484  0.37474119  0.85192769    -0.08400
C887        C  0.00186625  0.34931970  0.85499495     0.05100
C888        C  0.01685753  0.34476308  0.88322139    -0.03400
Br889      Br  0.04011896  0.30844437  0.89189794    -0.03100
H890        H  0.02827753  0.36415301  0.92691861     0.09000
H891        H  0.46361386  0.37530084  0.83347744     0.07000
Br892      Br  0.44586338  0.42620344  0.87304296    -0.03600
C893        C  0.02298636  0.37777468  0.60716489    -0.10200
C894        C  0.99946770  0.39959937  0.60612090     0.06000
C895        C  0.48599580  0.40350159  0.63231759    -0.04000
C896        C  0.48653703  0.37997367  0.65402589    -0.08400
C897        C  0.00005136  0.35363758  0.65178178     0.05100
C898        C  0.02362478  0.35519424  0.62999140    -0.03400
Br899      Br  0.05825490  0.32835984  0.63217093    -0.03100
H900        H  0.04126950  0.37870096  0.59054307     0.09000
H901        H  0.47293681  0.38238574  0.67458097     0.07000
Br902      Br  0.46083054  0.43847383  0.64112584    -0.03600
C903        C  0.02256652  0.12606820  0.64843846    -0.10200
C904        C  0.00032909  0.14914930  0.64757378     0.06000
C905        C  0.47545199  0.14696948  0.62504428    -0.04000
C906        C  0.47681372  0.12401366  0.60258764    -0.08400
C907        C  0.00167603  0.10283742  0.60227086     0.05100
C908        C  0.02360610  0.10321542  0.62590943    -0.03400
Br909      Br  0.05673530  0.07453698  0.62737365    -0.03100
H910        H  0.03957465  0.12617172  0.66641629     0.09000
H911        H  0.45940805  0.12320797  0.58502766     0.07000
Br912      Br  0.44197419  0.17526892  0.62396859    -0.03600
O913        O  0.99940426  0.55131441  0.08682365    -0.87500
O914        O  0.00038798  0.54766974  0.41295269    -0.87700
O915        O  0.04955015  0.58771025  0.00031628    -0.89400
O916        O  0.44973319  0.58683375  0.99862979    -0.88100
O917        O  0.41317467  0.54927242  0.99972928    -0.87700
O918        O  0.08691780  0.55074589  0.99942686    -0.89100
O919        O  0.99884457  0.58519109  0.44968743    -0.87600
O920        O  0.99805426  0.58808122  0.04917125    -0.87200
Zr921      Zr  0.99997036  0.56227938  0.99952750     2.84300
O922        O  0.47063610  0.53088976  0.46942600    -1.09100
O923        O  0.03102430  0.53210574  0.03098552    -1.09900
C924        C  0.99840802  0.57933131  0.07741510     1.05600
C925        C  0.99962853  0.57602546  0.42163189     1.05500
C926        C  0.07762257  0.57882798  0.99969197     1.08500
C927        C  0.42167640  0.57767589  0.99891143     1.06300
H928        H  0.04444981  0.54262518  0.45656852     0.31800
O929        O  0.03160646  0.53017837  0.46953010    -1.30100
H930        H  0.45649414  0.54364580  0.04367533     0.31500
O931        O  0.46933362  0.53083577  0.03104403    -1.31800
O932        O  0.00224430  0.94960009  0.41333269    -0.87500
O933        O  0.99940039  0.95085892  0.08780505    -0.89000
O934        O  0.08790671  0.49618749  0.45240053    -0.87600
O935        O  0.41527996  0.49936775  0.45024727    -0.87700
O936        O  0.41369404  0.49991904  0.04883717    -0.87400
O937        O  0.08674111  0.50404899  0.05102135    -0.87200
O938        O  0.05072909  0.91360290  0.99861213    -0.87500
O939        O  0.45018935  0.91390875  0.00024336    -0.87000
O940        O  0.08764201  0.95077238  0.00088117    -0.88100
O941        O  0.41335768  0.95115678  0.99998717    -0.87200
O942        O  0.05172710  0.49637136  0.41483286    -0.87600
O943        O  0.04970973  0.50557328  0.08782759    -0.87400
O944        O  0.44997396  0.49929221  0.08643287    -0.87000
O945        O  0.45201311  0.49878269  0.41323102    -0.87400
O946        O  0.00078630  0.91245496  0.45017124    -0.87700
O947        O  0.00133988  0.91343472  0.05072143    -0.89000
Zr948      Zr  0.00110515  0.49824021  0.43924606     2.83100
Zr949      Zr  0.00047268  0.50131890  0.06219909     2.83500
Zr950      Zr  0.06234703  0.50069604  0.00103005     2.84100
Zr951      Zr  0.43907648  0.49950802  0.99977948     2.83400
Zr952      Zr  0.00078794  0.93852794  0.00085052     2.84200
O953        O  0.46937535  0.97046488  0.03099942    -1.09600
O954        O  0.03062219  0.96871262  0.46897171    -1.09100
C955        C  0.00203566  0.92131235  0.42193642     1.05500
C956        C  0.00009626  0.92252923  0.07885846     1.08200
C957        C  0.07982838  0.49569687  0.42402879     1.05700
C958        C  0.42381726  0.49866900  0.42204047     1.06100
C959        C  0.42195740  0.49916319  0.07706935     1.05700
C960        C  0.07785128  0.50618915  0.07909474     1.05200
C961        C  0.07880121  0.92260020  0.99915461     1.05600
C962        C  0.42210032  0.92272637  0.00046702     1.05200
H963        H  0.04421006  0.95681972  0.04499980     0.31800
O964        O  0.03145457  0.96953146  0.03219024    -1.30700
H965        H  0.45540240  0.95556556  0.45649074     0.31900
O966        O  0.46837081  0.96824641  0.46914444    -1.32100
O967        O  0.99635241  0.70077388  0.16149964    -0.87500
O968        O  0.00101756  0.69729559  0.33603295    -0.87700
O969        O  0.05029613  0.66119779  0.24765032    -0.89400
O970        O  0.45098014  0.66129254  0.24855252    -0.88100
O971        O  0.41438550  0.69876597  0.24880224    -0.87700
O972        O  0.08726308  0.69833502  0.24740849    -0.89100
O973        O  0.99983768  0.66076237  0.29831413    -0.87600
O974        O  0.99907093  0.66304284  0.19814645    -0.87200
Zr975      Zr  0.00075804  0.68674364  0.24862298     2.84300
O976        O  0.47035357  0.71753472  0.28050055    -1.09100
O977        O  0.03118278  0.71785454  0.21736765    -1.09900
C978        C  0.99687259  0.67251337  0.17023926     1.05600
C979        C  0.99982891  0.66918061  0.32671287     1.05500
C980        C  0.07839394  0.67011601  0.24723697     1.08500
C981        C  0.42299737  0.67039002  0.24830723     1.06300
H982        H  0.04523561  0.70352584  0.29196622     0.31800
O983        O  0.03245856  0.71666673  0.27965305    -1.30100
H984        H  0.45632962  0.70511601  0.20589740     0.31500
O985        O  0.46925414  0.71765582  0.21869444    -1.31800
O986        O  0.00424449  0.79653296  0.33773864    -0.87500
O987        O  0.00137634  0.79991435  0.16282664    -0.89000
O988        O  0.08995695  0.74667963  0.29658874    -0.87600
O989        O  0.41581090  0.74632046  0.30024549    -0.87700
O990        O  0.41294826  0.75089645  0.20077076    -0.87400
O991        O  0.08668727  0.74747096  0.19877079    -0.87200
O992        O  0.05112014  0.83552953  0.25022231    -0.87500
O993        O  0.45195267  0.83635803  0.25151972    -0.87000
O994        O  0.08785477  0.79829619  0.24855553    -0.88100
O995        O  0.41492729  0.79954703  0.25266311    -0.87200
O996        O  0.05361195  0.74650118  0.33432704    -0.87600
O997        O  0.04925875  0.74878457  0.16245830    -0.87400
O998        O  0.44937820  0.75000455  0.16347274    -0.87000
O999        O  0.45268599  0.74780118  0.33719856    -0.87400
O1000       O  0.00450977  0.83400388  0.30116023    -0.87700
O1001       O  0.00067172  0.83670701  0.20049507    -0.89000
Zr1002     Zr  0.00234453  0.74741671  0.31142247     2.83100
Zr1003     Zr  0.99995486  0.74988582  0.18783856     2.83500
Zr1004     Zr  0.06243890  0.74827698  0.24848672     2.84100
Zr1005     Zr  0.43932193  0.74890017  0.25006732     2.83400
Zr1006     Zr  0.00142376  0.81067542  0.25042305     2.84200
O1007       O  0.46921042  0.78030134  0.21883867    -1.09600
O1008       O  0.03247596  0.77894479  0.28040216    -1.09100
C1009       C  0.00522281  0.82484271  0.32932390     1.05500
C1010       C  0.00130492  0.82805796  0.17211264     1.08200
C1011       C  0.08162043  0.74614992  0.32486363     1.05700
C1012       C  0.42452557  0.74714031  0.32839113     1.06100
C1013       C  0.42139496  0.75098330  0.17238454     1.05700
C1014       C  0.07741143  0.74771318  0.17077314     1.05200
C1015       C  0.07913792  0.82664446  0.24900178     1.05600
C1016       C  0.42384512  0.82790688  0.25271570     1.05200
H1017       H  0.04427456  0.79293910  0.20572861     0.31800
O1018       O  0.03164222  0.78013506  0.21850757    -1.30700
H1019       H  0.45845174  0.79189826  0.29408838     0.31900
O1020       O  0.47085302  0.77925578  0.28089327    -1.32100
O1021       O  0.33652002  0.00037204  0.20079073    -0.87500
O1022       O  0.16373606  0.00078327  0.20093836    -0.87700
O1023       O  0.25031323  0.95061092  0.16204278    -0.89400
O1024       O  0.25038487  0.55085146  0.16371025    -0.88100
O1025       O  0.25050465  0.58742927  0.20150478    -0.87700
O1026       O  0.25117216  0.91352681  0.19925840    -0.89100
O1027       O  0.20002972  0.00006771  0.16340645    -0.87600
O1028       O  0.30016654  0.00122836  0.16336528    -0.87200
Zr1029     Zr  0.25001350  0.99996560  0.18803561     2.84300
O1030       O  0.21927445  0.53056520  0.21943979    -1.09100
O1031       O  0.28127433  0.96910386  0.21861583    -1.09900
C1032       C  0.32822593  0.00114135  0.17255863     1.05600
C1033       C  0.17203929  0.00053753  0.17268767     1.05500
C1034       C  0.25042451  0.92241644  0.17101338     1.08500
C1035       C  0.25072819  0.57892689  0.17316827     1.06300
H1036       H  0.20682938  0.95587792  0.20602166     0.31800
O1037       O  0.21944683  0.96869548  0.21886416    -1.30100
H1038       H  0.29367029  0.54416686  0.20637083     0.31500
O1039       O  0.28096965  0.53111899  0.21886298    -1.31800
O1040       O  0.16408037  0.99652606  0.30007706    -0.87500
O1041       O  0.33715328  0.00172482  0.29892376    -0.89000
O1042       O  0.20169347  0.91221066  0.24826220    -0.87600
O1043       O  0.19955524  0.58513256  0.25079413    -0.87700
O1044       O  0.29916806  0.58695276  0.25176063    -0.87400
O1045       O  0.29974313  0.91264555  0.25131553    -0.87200
O1046       O  0.24946676  0.95047468  0.33738046    -0.87500
O1047       O  0.25195840  0.54811145  0.33744720    -0.87000
O1048       O  0.24770690  0.91366661  0.29993331    -0.88100
O1049       O  0.25083724  0.58545676  0.30043633    -0.87200
O1050       O  0.16418002  0.94862575  0.24931806    -0.87600
O1051       O  0.33639894  0.94982162  0.25066381    -0.87400
O1052       O  0.33624489  0.55005582  0.25067640    -0.87000
O1053       O  0.16312092  0.54755223  0.25208601    -0.87400
O1054       O  0.20063814  0.99703181  0.33730188    -0.87700
O1055       O  0.30063968  0.00198645  0.33621262    -0.89000
Zr1056     Zr  0.18862837  0.99909514  0.25035055     2.83100
Zr1057     Zr  0.31122614  0.00044733  0.25000016     2.83500
Zr1058     Zr  0.25061883  0.93821306  0.24968962     2.84100
Zr1059     Zr  0.24999239  0.56100646  0.25068519     2.83400
Zr1060     Zr  0.25022044  0.00014664  0.31201816     2.84200
O1061       O  0.28122175  0.52992507  0.28108574    -1.09600
O1062       O  0.21994019  0.96875864  0.28095955    -1.09100
C1063       C  0.17258742  0.99562621  0.32827419     1.05500
C1064       C  0.32874503  0.00250544  0.32713195     1.08200
C1065       C  0.17350890  0.92046779  0.24882754     1.05700
C1066       C  0.17154070  0.57586796  0.25164569     1.06100
C1067       C  0.32727723  0.57830065  0.25157559     1.05700
C1068       C  0.32778847  0.92133679  0.25129807     1.05200
C1069       C  0.24789462  0.92235472  0.32828692     1.05600
C1070       C  0.25140195  0.57638434  0.32849147     1.05200
H1071       H  0.29388052  0.95646100  0.29400696     0.31800
O1072       O  0.28113507  0.96911875  0.28116958    -1.30700
H1073       H  0.20727409  0.54191720  0.29499581     0.31900
O1074       O  0.22005218  0.52948409  0.28195957    -1.32100
O1075       O  0.20050424  0.66145727  0.49788766    -0.87500
O1076       O  0.20107737  0.83563126  0.49781141    -0.87700
O1077       O  0.16231129  0.75003428  0.04969129    -0.89400
O1078       O  0.16476609  0.74948452  0.44777810    -0.88100
O1079       O  0.20240137  0.74777411  0.41129088    -0.87700
O1080       O  0.19954451  0.74836179  0.08614103    -0.89100
O1081       O  0.16393500  0.79896798  0.49879599    -0.87600
O1082       O  0.16342444  0.69867145  0.49911470    -0.87200
Zr1083     Zr  0.18872238  0.74860604  0.49835404     2.84300
O1084       O  0.22004256  0.77925377  0.46741729    -1.09100
O1085       O  0.21772905  0.71880711  0.03112568    -1.09900
C1086       C  0.17239021  0.67044578  0.49864086     1.05600
C1087       C  0.17293832  0.82726053  0.49849656     1.05500
C1088       C  0.17150005  0.74905498  0.07777447     1.08500
C1089       C  0.17415834  0.74886239  0.41970829     1.06300
H1090       H  0.20556760  0.79397657  0.04355735     0.31800
O1091       O  0.21820161  0.78108750  0.03083229    -1.30100
H1092       H  0.20763036  0.70455354  0.45459660     0.31500
O1093       O  0.22002687  0.71745530  0.46757602    -1.31800
O1094       O  0.29952283  0.83641943  0.50014670    -0.87500
O1095       O  0.30054115  0.66169778  0.50053884    -0.89000
O1096       O  0.24886559  0.80016967  0.08661666    -0.87600
O1097       O  0.25194986  0.79775338  0.41145734    -0.87700
O1098       O  0.25367108  0.69851973  0.41224018    -0.87400
O1099       O  0.24880749  0.70029601  0.08760655    -0.87200
O1100       O  0.33476855  0.74943755  0.05133812    -0.87500
O1101       O  0.33828078  0.74852181  0.45106117    -0.87000
O1102       O  0.29746927  0.74992651  0.08777449    -0.88100
O1103       O  0.30231898  0.74689244  0.41326250    -0.87200
O1104       O  0.24940003  0.83682337  0.04905937    -0.87600
O1105       O  0.24795480  0.66295458  0.05063079    -0.87400
O1106       O  0.25389056  0.66140464  0.44941342    -0.87000
O1107       O  0.25104288  0.83500735  0.44839579    -0.87400
O1108       O  0.33695319  0.79969471  0.50165651    -0.87700
O1109       O  0.33751091  0.69900651  0.49952775    -0.89000
Zr1110     Zr  0.25043456  0.81033912  0.49856615     2.83100
Zr1111     Zr  0.25063763  0.68677452  0.49895390     2.83500
Zr1112     Zr  0.24881456  0.74988503  0.06162136     2.84100
Zr1113     Zr  0.25180455  0.74829893  0.43728631     2.83400
Zr1114     Zr  0.31235942  0.74910776  0.50023440     2.84200
O1115       O  0.28210053  0.71781240  0.46894514    -1.09600
O1116       O  0.28005192  0.78076212  0.03114693    -1.09100
C1117       C  0.32766487  0.82786754  0.50117642     1.05500
C1118       C  0.32861299  0.67073347  0.50012896     1.08200
C1119       C  0.24943187  0.82832691  0.07729958     1.05700
C1120       C  0.25158624  0.82603052  0.42016211     1.06100
C1121       C  0.25455233  0.67036652  0.42127879     1.05700
C1122       C  0.24821778  0.67199217  0.07879264     1.05200
C1123       C  0.32560433  0.74975344  0.07953228     1.05600
C1124       C  0.33030541  0.74719277  0.42270625     1.05200
H1125       H  0.29213922  0.70566973  0.04436566     0.31800
O1126       O  0.27965776  0.71843700  0.03139151    -1.30700
H1127       H  0.29509342  0.79252430  0.45570317     0.31900
O1128       O  0.28221776  0.77974435  0.46827896    -1.32100
C1129       C  0.23321580  0.59839833  0.12294958    -0.10200
C1130       C  0.25072294  0.60304542  0.14941239     0.06000
C1131       C  0.26777137  0.63033717  0.15229395    -0.04000
C1132       C  0.26622651  0.65265367  0.12930266    -0.08400
C1133       C  0.24850243  0.64806958  0.10286971     0.05100
C1134       C  0.23200309  0.62042431  0.09980594    -0.03400
Br1135     Br  0.20599834  0.61171527  0.06552989    -0.03100
H1136       H  0.21994877  0.57759378  0.12041295     0.09000
H1137       H  0.27966889  0.67333961  0.13169687     0.07000
Br1138     Br  0.29557484  0.63724499  0.18558262    -0.03600
C1139       C  0.26637329  0.90263272  0.11993021    -0.10200
C1140       C  0.24955586  0.89847016  0.14694654     0.06000
C1141       C  0.23165594  0.87179558  0.15009125    -0.04000
C1142       C  0.23246009  0.84904907  0.12750248    -0.08400
C1143       C  0.24979004  0.85284608  0.10078621     0.05100
C1144       C  0.26638282  0.88037546  0.09680725    -0.03400
Br1145     Br  0.29038838  0.88880395  0.06096547    -0.03100
H1146       H  0.27981190  0.92324164  0.11686050     0.09000
H1147       H  0.21855847  0.82873890  0.13034266     0.07000
Br1148     Br  0.20304079  0.86671101  0.18289612    -0.03600
C1149       C  0.25988334  0.86917435  0.34448705    -0.10200
C1150       C  0.24749696  0.89789379  0.35197830     0.06000
C1151       C  0.23628348  0.90248247  0.38201631    -0.04000
C1152       C  0.23809860  0.87884298  0.40354301    -0.08400
C1153       C  0.25087036  0.85023039  0.39616522     0.05100
C1154       C  0.26196538  0.84565786  0.36608426    -0.03400
Br1155     Br  0.28229615  0.80908191  0.35284496    -0.03100
H1156       H  0.26899977  0.86517065  0.32178485     0.08600
H1157       H  0.22900149  0.88286382  0.42624612     0.07000
Br1158     Br  0.21687111  0.93959507  0.39540873    -0.03600
C1159       C  0.23603508  0.65008839  0.37182553    -0.10200
C1160       C  0.25506493  0.64653613  0.39735464     0.06000
C1161       C  0.27321031  0.61997149  0.39981727    -0.04000
C1162       C  0.27116512  0.59706759  0.37750256    -0.08400
C1163       C  0.25184777  0.60047115  0.35215930     0.05100
C1164       C  0.23423259  0.62740339  0.34934688    -0.03400
Br1165     Br  0.20572052  0.63377611  0.31657269    -0.03100
H1166       H  0.22184897  0.67030790  0.36973072     0.09000
H1167       H  0.28541093  0.57688695  0.37950008     0.07000
Br1168     Br  0.30306368  0.61488860  0.43150691    -0.03600
C1169       C  0.37047792  0.65375798  0.26174008    -0.10200
C1170       C  0.39868600  0.64666340  0.24824380     0.06000
C1171       C  0.40286753  0.61703515  0.23577038    -0.04000
C1172       C  0.37943860  0.59544340  0.23766472    -0.08400
C1173       C  0.35130261  0.60238751  0.25127638     0.05100
C1174       C  0.34699354  0.63212311  0.26347809    -0.03400
Br1175     Br  0.31069925  0.64458894  0.28466093    -0.03100
H1176       H  0.36680150  0.67618952  0.27174636     0.09000
H1177       H  0.38314771  0.57307594  0.22784871     0.07000
Br1178     Br  0.43893454  0.60454607  0.21413305    -0.03600
C1179       C  0.36919758  0.84359506  0.25050906    -0.10200
C1180       C  0.39983129  0.85237129  0.25369758     0.06000
C1181       C  0.40628154  0.88415958  0.25676932    -0.04000
C1182       C  0.38254082  0.90569290  0.25622509    -0.08400
C1183       C  0.35192405  0.89692195  0.25234940     0.05100
C1184       C  0.34553801  0.86507489  0.24955631    -0.03400
Br1185     Br  0.30565685  0.84798113  0.24302212    -0.03100
H1186       H  0.36336961  0.81960328  0.24796417     0.09000
H1187       H  0.38831917  0.92970815  0.25869196     0.07000
Br1188     Br  0.44656727  0.90086445  0.26163065    -0.03600
C1189       C  0.09678655  0.61892008  0.26389279    -0.10200
C1190       C  0.10223084  0.64604852  0.24756204     0.06000
C1191       C  0.13043716  0.64963846  0.23246015    -0.04000
C1192       C  0.15268625  0.62680102  0.23471284    -0.08400
C1193       C  0.14734272  0.59966646  0.25114550     0.05100
C1194       C  0.11878989  0.59581411  0.26569310    -0.03400
Br1195     Br  0.10835236  0.56056472  0.28966832    -0.03100
H1196       H  0.07534834  0.61579857  0.27577717     0.09000
H1197       H  0.17403673  0.62992650  0.22268218     0.07000
Br1198     Br  0.13912422  0.68375399  0.20613810    -0.03600
C1199       C  0.13228631  0.84402136  0.25987240    -0.10200
C1200       C  0.10319475  0.85073801  0.24818684     0.06000
C1201       C  0.09788723  0.88040146  0.23620784    -0.04000
C1202       C  0.12110290  0.90234133  0.23663997    -0.08400
C1203       C  0.15001179  0.89583871  0.24865893     0.05100
C1204       C  0.15546429  0.86611961  0.26045484    -0.03400
Br1205     Br  0.19299230  0.85450350  0.27997714    -0.03100
H1206       H  0.13688465  0.82159864  0.26944642     0.09000
H1207       H  0.11648043  0.92472322  0.22725176     0.07000
Br1208     Br  0.06018769  0.89265090  0.21745254    -0.03600
C1209       C  0.37971433  0.75570339  0.09545654    -0.10200
C1210       C  0.34934754  0.75031900  0.10404091     0.06000
C1211       C  0.34287182  0.74632273  0.13563941    -0.04000
C1212       C  0.36659913  0.74676038  0.15709415    -0.08400
C1213       C  0.39707753  0.75170704  0.14837663     0.05100
C1214       C  0.40326472  0.75688384  0.11693074    -0.03400
Br1215     Br  0.44266296  0.76730622  0.10071485    -0.03100
H1216       H  0.38538235  0.75966925  0.07166420     0.09000
H1217       H  0.36096919  0.74305938  0.18093930     0.07000
Br1218     Br  0.30264788  0.74014328  0.15212019    -0.03600
C1219       C  0.13138338  0.75389897  0.15493841    -0.10200
C1220       C  0.10114545  0.74726467  0.14664048     0.06000
C1221       C  0.09469499  0.74035992  0.11568724    -0.04000
C1222       C  0.11784500  0.74177908  0.09392258    -0.08400
C1223       C  0.14803585  0.74852615  0.10215097     0.05100
C1224       C  0.15480153  0.75407740  0.13340280    -0.03400
Br1225     Br  0.19493349  0.76234234  0.14931705    -0.03100
H1226       H  0.13709266  0.75899040  0.17852343     0.09000
H1227       H  0.11214923  0.73663832  0.07035118     0.07000
Br1228     Br  0.05570427  0.72654277  0.10110887    -0.03600
C1229       C  0.10192196  0.76491528  0.37423324    -0.10200
C1230       C  0.10591011  0.74621934  0.34846333     0.06000
C1231       C  0.13312583  0.72903679  0.34576479    -0.04000
C1232       C  0.15505389  0.73032945  0.36911389    -0.08400
C1233       C  0.15072980  0.74878590  0.39516881     0.05100
C1234       C  0.12402169  0.76667643  0.39715495    -0.03400
Br1235     Br  0.11737855  0.79621519  0.42887607    -0.03100
H1236       H  0.08180209  0.77910525  0.37609042     0.09000
H1237       H  0.17543752  0.71647808  0.36707420     0.07000
Br1238     Br  0.14130417  0.70236787  0.31170259    -0.03600
C1239       C  0.40789034  0.74018473  0.38269375    -0.10200
C1240       C  0.40027012  0.74734094  0.35229883     0.06000
C1241       C  0.36957834  0.75487114  0.34564496    -0.04000
C1242       C  0.34745655  0.75326655  0.36859631    -0.08400
C1243       C  0.35500207  0.74650582  0.39910016     0.05100
C1244       C  0.38599621  0.74028122  0.40603315    -0.03400
Br1245     Br  0.40098669  0.73161603  0.44646139    -0.03100
H1246       H  0.43122229  0.73468095  0.38856785     0.09000
H1247       H  0.32417660  0.75850513  0.36255348     0.07000
Br1248     Br  0.35606096  0.77077801  0.30684979    -0.03600
C1249       C  0.37331499  0.89937122  0.48161950    -0.10200
C1250       C  0.39811712  0.89829053  0.00075325     0.06000
C1251       C  0.40191391  0.87006621  0.01636425    -0.04000
C1252       C  0.37874957  0.84779390  0.01571635    -0.08400
C1253       C  0.35162113  0.85238694  0.99922193     0.05100
C1254       C  0.35070266  0.87671887  0.48055569    -0.03400
Br1255     Br  0.32100891  0.87917190  0.44836271    -0.03100
H1256       H  0.37320885  0.91738330  0.46458536     0.09000
H1257       H  0.38194578  0.82673456  0.02843805     0.07000
Br1258     Br  0.43765493  0.86058394  0.03994625    -0.03600
C1259       C  0.37124667  0.59695492  0.01739348    -0.10200
C1260       C  0.39720597  0.60142818  0.99902057     0.06000
C1261       C  0.39857150  0.62564819  0.47654925    -0.04000
C1262       C  0.37557673  0.64793689  0.47761032    -0.08400
C1263       C  0.34989661  0.64602091  0.00118470     0.05100
C1264       C  0.34789690  0.61893496  0.01883677    -0.03400
Br1265     Br  0.31524844  0.61167958  0.04721994    -0.03100
H1266       H  0.36945114  0.57654092  0.03138465     0.09000
H1267       H  0.37536037  0.66595635  0.46058572     0.07000
Br1268     Br  0.42799996  0.62785294  0.44411268    -0.03600
C1269       C  0.12397423  0.85070275  0.97980989    -0.10200
C1270       C  0.14908447  0.85356944  0.99946513     0.06000
C1271       C  0.15564789  0.88341204  0.50288408    -0.04000
C1272       C  0.13204827  0.90506747  0.50252564    -0.08400
C1273       C  0.10289727  0.89886957  0.99837450     0.05100
C1274       C  0.10131025  0.87323489  0.97872149    -0.03400
Br1275     Br  0.07048072  0.86913498  0.94788874    -0.03100
H1276       H  0.12244962  0.83124290  0.96449144     0.09000
H1277       H  0.13785838  0.92890060  0.50631528     0.07000
Br1278     Br  0.19585798  0.89954606  0.50995913    -0.03600
C1279       C  0.14235397  0.63011769  0.97426828    -0.10200
C1280       C  0.14676239  0.64816309  0.00052879     0.06000
C1281       C  0.13044863  0.64177113  0.52553552    -0.04000
C1282       C  0.10747303  0.61940860  0.52540670    -0.08400
C1283       C  0.10112428  0.60277349  0.99937255     0.05100
C1284       C  0.11950985  0.60769529  0.97345080    -0.03400
Br1285     Br  0.11292248  0.58555525  0.93603759    -0.03100
H1286       H  0.15634079  0.63387086  0.95418900     0.09000
H1287       H  0.09408544  0.61570015  0.54590420     0.07000
Br1288     Br  0.13713336  0.66467132  0.56241315    -0.03600
C1289       C  0.40560184  0.00960780  0.36822224    -0.10200
C1290       C  0.39949835  0.49769662  0.39795626     0.06000
C1291       C  0.36804689  0.49417669  0.40478695    -0.04000
C1292       C  0.34645680  0.49428637  0.38124391    -0.08400
C1293       C  0.35476738  0.49740866  0.35033878     0.05100
C1294       C  0.38400383  0.01024228  0.34466162    -0.03400
Br1295     Br  0.39926999  0.02132687  0.30488295    -0.03100
H1296       H  0.42901737  0.01514376  0.36269699     0.09000
H1297       H  0.32271245  0.49174598  0.38743808     0.07000
Br1298     Br  0.35165704  0.48840551  0.44524969    -0.03600
C1299       C  0.09625420  0.48908699  0.36941398    -0.10200
C1300       C  0.10444963  0.49454130  0.40011007     0.06000
C1301       C  0.13429891  0.00051886  0.40592961    -0.04000
C1302       C  0.15616903  0.99982685  0.38271042    -0.08400
C1303       C  0.14902966  0.49453605  0.35230839     0.05100
C1304       C  0.11787073  0.48878016  0.34576739    -0.03400
Br1305     Br  0.10243841  0.47930707  0.30558038    -0.03100
H1306       H  0.07266925  0.48481657  0.36354918     0.09000
H1307       H  0.17955264  0.00495042  0.38872283     0.07000
Br1308     Br  0.14962393  0.01032344  0.44610214    -0.03600
C1309       C  0.15526381  0.00988275  0.11910765    -0.10200
C1310       C  0.14707826  0.50672570  0.14977459     0.06000
C1311       C  0.11632052  0.49922097  0.15649400    -0.04000
C1312       C  0.09436052  0.49984446  0.13331582    -0.08400
C1313       C  0.10169547  0.50855052  0.10327569     0.05100
C1314       C  0.13345917  0.01082856  0.09583563    -0.03400
Br1315     Br  0.14799127  0.02369451  0.05631709    -0.03100
H1316       H  0.17846385  0.01627146  0.11358978     0.09000
H1317       H  0.07134450  0.49284813  0.13887185     0.07000
Br1318     Br  0.10180065  0.48708023  0.19624525    -0.03600
C1319       C  0.34497535  0.48987683  0.11706114    -0.10200
C1320       C  0.35197431  0.49951070  0.14700063     0.06000
C1321       C  0.38344103  0.00925374  0.15546910    -0.04000
C1322       C  0.40511284  0.00966167  0.13196600    -0.08400
C1323       C  0.39740197  0.49861192  0.10052286     0.05100
C1324       C  0.36723294  0.48892618  0.09406483    -0.03400
Br1325     Br  0.35476843  0.47235380  0.05513408    -0.03100
H1326       H  0.32212900  0.48227696  0.11156037     0.09000
H1327       H  0.42829282  0.01597960  0.13765386     0.07000
Br1328     Br  0.39835312  0.01936813  0.19565166    -0.03600
C1329       C  0.01345343  0.65069077  0.37887186    -0.10200
C1330       C  0.99903035  0.64495989  0.35069914     0.06000
C1331       C  0.48398040  0.61803602  0.34751459    -0.04000
C1332       C  0.48455350  0.59605247  0.37079442    -0.08400
C1333       C  0.99969751  0.59999331  0.39760687     0.05100
C1334       C  0.01415303  0.62861148  0.40204272    -0.03400
Br1335     Br  0.03737386  0.63837948  0.43811961    -0.03100
H1336       H  0.02505048  0.67228417  0.38269017     0.09000
H1337       H  0.47242170  0.57467043  0.36745249     0.07000
Br1338     Br  0.45993031  0.60874419  0.31193710    -0.03600
C1339       C  0.01062823  0.86676909  0.40631509    -0.10200
C1340       C  0.00366034  0.89707620  0.39775201     0.06000
C1341       C  0.48537983  0.90062705  0.36888185    -0.04000
C1342       C  0.48793040  0.87768660  0.34658474    -0.08400
C1343       C  0.00634748  0.84903732  0.35350514     0.05100
C1344       C  0.01213313  0.84293935  0.38483363    -0.03400
Br1345     Br  0.02295135  0.80324473  0.40060650    -0.03100
H1346       H  0.01489608  0.86136136  0.43006139     0.09000
H1347       H  0.47728891  0.88135718  0.32453677     0.07000
Br1348     Br  0.45986521  0.93498338  0.35912591    -0.03600
C1349       C  0.02235794  0.87544026  0.10199157    -0.10200
C1350       C  0.99996606  0.89840690  0.10269769     0.06000
C1351       C  0.47906457  0.89956409  0.12819128    -0.04000
C1352       C  0.48091555  0.87649212  0.15046915    -0.08400
C1353       C  0.00158659  0.85226233  0.14828012     0.05100
C1354       C  0.02324395  0.85242143  0.12436274    -0.03400
Br1355     Br  0.05535241  0.82264759  0.12184357    -0.03100
H1356       H  0.03945523  0.87559037  0.08410493     0.09000
H1357       H  0.46671849  0.87818620  0.17068027     0.07000
Br1358     Br  0.44858432  0.93061046  0.13355770    -0.03600
C1359       C  0.02124261  0.62927236  0.14403268    -0.10200
C1360       C  0.99614659  0.64886869  0.14643055     0.06000
C1361       C  0.47645136  0.64632149  0.12494504    -0.04000
C1362       C  0.47733173  0.62362113  0.10232810    -0.08400
C1363       C  0.99783199  0.60328152  0.10101911     0.05100
C1364       C  0.02240249  0.60680598  0.12138156    -0.03400
Br1365     Br  0.05902803  0.58309897  0.11786026    -0.03100
H1366       H  0.04040980  0.63198543  0.15943229     0.09000
H1367       H  0.45918796  0.62244487  0.08555473     0.07000
Br1368     Br  0.44231311  0.67384389  0.12572017    -0.03600
O1369       O  0.00060648  0.55215244  0.58614850    -0.87500
O1370       O  0.00154266  0.54883690  0.91258348    -0.87700
O1371       O  0.05002560  0.58676693  0.50053102    -0.89400
O1372       O  0.45102317  0.58729175  0.49862831    -0.88100
O1373       O  0.41424906  0.54979813  0.49915744    -0.87700
O1374       O  0.08697052  0.54942732  0.49971330    -0.89100
O1375       O  0.99974743  0.58640043  0.94935005    -0.87600
O1376       O  0.99864976  0.58872049  0.54832844    -0.87200
Zr1377     Zr  0.00019317  0.56145678  0.49987313     2.84300
O1378       O  0.46964946  0.53033898  0.96873963    -1.09100
O1379       O  0.03096940  0.53124495  0.53169026    -1.09900
C1380       C  0.99958639  0.58019403  0.57656393     1.05600
C1381       C  0.00070353  0.57718991  0.92128009     1.05500
C1382       C  0.07805858  0.57769461  0.49994773     1.08500
C1383       C  0.42300650  0.57806993  0.49845071     1.06300
H1384       H  0.04437875  0.54376753  0.95652502     0.31800
O1385       O  0.03163515  0.53109857  0.96936033    -1.30100
H1386       H  0.45683296  0.54460082  0.54379716     0.31500
O1387       O  0.46978162  0.53176347  0.53130309    -1.31800
O1388       O  0.99982944  0.94993993  0.91399395    -0.87500
O1389       O  0.00208872  0.95047271  0.58669657    -0.89000
O1390       O  0.08806427  0.49880389  0.95183218    -0.87600
O1391       O  0.41453195  0.50045839  0.94987892    -0.87700
O1392       O  0.41404323  0.49977224  0.54949612    -0.87400
O1393       O  0.08702473  0.50117913  0.55099212    -0.87200
O1394       O  0.04923442  0.91245622  0.49896852    -0.87500
O1395       O  0.44876051  0.91285297  0.50360073    -0.87000
O1396       O  0.08621838  0.94931192  0.49834196    -0.88100
O1397       O  0.41224400  0.95043355  0.50071211    -0.87200
O1398       O  0.05187036  0.49883613  0.91425509    -0.87600
O1399       O  0.05022270  0.50074875  0.58836989    -0.87400
O1400       O  0.45017722  0.50020538  0.58716960    -0.87000
O1401       O  0.45105472  0.50110310  0.91270376    -0.87400
O1402       O  0.00104771  0.91297072  0.95094091    -0.87700
O1403       O  0.00120296  0.91303173  0.54992177    -0.89000
Zr1404     Zr  0.00163764  0.49919859  0.93845382     2.83100
Zr1405     Zr  0.00019483  0.50090025  0.56326594     2.83500
Zr1406     Zr  0.06161610  0.49943181  0.50144836     2.84100
Zr1407     Zr  0.43965140  0.50008844  0.50021848     2.83400
Zr1408     Zr  0.99982668  0.93807549  0.50000059     2.84200
O1409       O  0.46873594  0.96889292  0.53126045    -1.09600
O1410       O  0.03159567  0.96906447  0.96978932    -1.09100
C1411       C  0.00058846  0.92173846  0.92264285     1.05500
C1412       C  0.00189854  0.92214948  0.57809678     1.08200
C1413       C  0.07987487  0.49860722  0.92352445     1.05700
C1414       C  0.42293485  0.50124960  0.92163367     1.06100
C1415       C  0.42215231  0.49944875  0.57783357     1.05700
C1416       C  0.07826509  0.50131534  0.57920391     1.05200
C1417       C  0.07737508  0.92096896  0.49813605     1.05600
C1418       C  0.42077454  0.92215138  0.50288056     1.05200
H1419       H  0.04373424  0.95634395  0.54367606     0.31800
O1420       O  0.03076671  0.96901260  0.53104334    -1.30700
H1421       H  0.45644827  0.95732992  0.95598957     0.31900
O1422       O  0.46928807  0.96999237  0.96878884    -1.32100
O1423       O  0.99807311  0.70044260  0.66214593    -0.87500
O1424       O  0.99688169  0.69821833  0.83568374    -0.87700
O1425       O  0.04880716  0.66148083  0.74946259    -0.89400
O1426       O  0.44995002  0.66266433  0.74975549    -0.88100
O1427       O  0.41313211  0.69997020  0.74951019    -0.87700
O1428       O  0.08568597  0.69878288  0.74958813    -0.89100
O1429       O  0.99745004  0.66129805  0.79829748    -0.87600
O1430       O  0.99935439  0.66268882  0.69873066    -0.87200
Zr1431     Zr  0.99926432  0.68727004  0.74893878     2.84300
O1432       O  0.46888334  0.71825439  0.78038653    -1.09100
O1433       O  0.03061797  0.71790637  0.71827130    -1.09900
C1434       C  0.99836274  0.67219916  0.67075154     1.05600
C1435       C  0.99658175  0.67000885  0.82653950     1.05500
C1436       C  0.07688007  0.67054774  0.74943655     1.08500
C1437       C  0.42193062  0.67162782  0.74944326     1.06300
H1438       H  0.04268565  0.70458381  0.79285110     0.31800
O1439       O  0.03025548  0.71768943  0.78015734    -1.30100
H1440       H  0.45579360  0.70589178  0.70582590     0.31500
O1441       O  0.46870712  0.71841758  0.71865348    -1.31800
O1442       O  0.00089348  0.79736554  0.83760905    -0.87500
O1443       O  0.00176590  0.79847340  0.66211123    -0.89000
O1444       O  0.08650497  0.74811122  0.79878537    -0.87600
O1445       O  0.41298976  0.75094762  0.79899007    -0.87700
O1446       O  0.41318825  0.75253052  0.70014691    -0.87400
O1447       O  0.08622302  0.74756910  0.69915766    -0.87200
O1448       O  0.05050627  0.83598901  0.75269987    -0.87500
O1449       O  0.45220665  0.83738579  0.74995399    -0.87000
O1450       O  0.08722241  0.79852955  0.75229909    -0.88100
O1451       O  0.41487574  0.80083453  0.74917335    -0.87200
O1452       O  0.04966718  0.74640165  0.83581523    -0.87600
O1453       O  0.04920307  0.74751618  0.66234517    -0.87400
O1454       O  0.45020828  0.75125784  0.66349328    -0.87000
O1455       O  0.44933472  0.74978423  0.83644054    -0.87400
O1456       O  0.00005694  0.83493380  0.80115330    -0.87700
O1457       O  0.00233894  0.83556372  0.69921704    -0.89000
Zr1458     Zr  0.99943634  0.74844198  0.81128424     2.83100
Zr1459     Zr  0.00002857  0.74956110  0.68809484     2.83500
Zr1460     Zr  0.06128952  0.74884474  0.74939259     2.84100
Zr1461     Zr  0.43856941  0.75001033  0.74966178     2.83400
Zr1462     Zr  0.00061036  0.81141276  0.75003418     2.84200
O1463       O  0.46953853  0.78089132  0.71896089    -1.09600
O1464       O  0.03058698  0.77950810  0.78069768    -1.09100
C1465       C  0.00043196  0.82568719  0.82936772     1.05500
C1466       C  0.00278957  0.82662912  0.67088169     1.08200
C1467       C  0.07783086  0.74662975  0.82691555     1.05700
C1468       C  0.42118376  0.75060089  0.82730532     1.06100
C1469       C  0.42215400  0.75271293  0.67196695     1.05700
C1470       C  0.07731206  0.74688510  0.67089262     1.05200
C1471       C  0.07852056  0.82686456  0.75299899     1.05600
C1472       C  0.42404739  0.82906652  0.74946084     1.05200
H1473       H  0.04437297  0.79310539  0.70607108     0.31800
O1474       O  0.03130987  0.78055520  0.71866865    -1.30700
H1475       H  0.45715363  0.79329922  0.79365425     0.31900
O1476       O  0.46969001  0.78037132  0.78086644    -1.32100
O1477       O  0.33630874  0.99777119  0.70047837    -0.87500
O1478       O  0.16378306  0.00041311  0.69947547    -0.87700
O1479       O  0.24979950  0.94962613  0.66174409    -0.89400
O1480       O  0.24980523  0.54997023  0.66313720    -0.88100
O1481       O  0.24912864  0.58736057  0.70007197    -0.87700
O1482       O  0.24981173  0.91258134  0.69906502    -0.89100
O1483       O  0.20006583  0.00019779  0.66191444    -0.87600
O1484       O  0.30011084  0.99809016  0.66287821    -0.87200
Zr1485     Zr  0.24980416  0.99929182  0.68733965     2.84300
O1486       O  0.21874048  0.53135864  0.71916210    -1.09100
O1487       O  0.28084255  0.96894501  0.71867906    -1.09900
C1488       C  0.32812946  0.99731293  0.67218168     1.05600
C1489       C  0.17204959  0.00069723  0.67115350     1.05500
C1490       C  0.24940014  0.92143146  0.67075695     1.08500
C1491       C  0.24971738  0.57824562  0.67192030     1.06300
H1492       H  0.20642120  0.95475991  0.70557655     0.31800
O1493       O  0.21916320  0.96770004  0.71818620    -1.30100
H1494       H  0.29315356  0.54446784  0.70621159     0.31500
O1495       O  0.28037050  0.53175131  0.71895833    -1.31800
O1496       O  0.16358584  0.99718558  0.79920729    -0.87500
O1497       O  0.33618243  0.00289728  0.79934568    -0.89000
O1498       O  0.20142532  0.91116207  0.75268787    -0.87600
O1499       O  0.19935485  0.58724062  0.75105627    -0.87700
O1500       O  0.29916627  0.58761393  0.75113115    -0.87400
O1501       O  0.30022024  0.91286620  0.75000925    -0.87200
O1502       O  0.25107497  0.95084882  0.83673437    -0.87500
O1503       O  0.25082602  0.55070049  0.83746870    -0.87000
O1504       O  0.24987387  0.91337139  0.80011714    -0.88100
O1505       O  0.25014266  0.58765660  0.80009711    -0.87200
O1506       O  0.16417996  0.94800797  0.75075586    -0.87600
O1507       O  0.33659212  0.95041780  0.75154269    -0.87400
O1508       O  0.33600137  0.55034057  0.74990185    -0.87000
O1509       O  0.16279415  0.54959868  0.75101368    -0.87400
O1510       O  0.20030608  0.99699914  0.83630120    -0.87700
O1511       O  0.29974571  0.00319480  0.83669666    -0.89000
Zr1512     Zr  0.18840483  0.99856335  0.74937141     2.83100
Zr1513     Zr  0.31100072  0.00051065  0.74973414     2.83500
Zr1514     Zr  0.25046735  0.93755002  0.74957555     2.84100
Zr1515     Zr  0.24939178  0.56253078  0.75011932     2.83400
Zr1516     Zr  0.24996670  0.00031085  0.81134842     2.84200
O1517       O  0.28054977  0.53179531  0.78074363    -1.09600
O1518       O  0.21985597  0.96868323  0.78032862    -1.09100
C1519       C  0.17220934  0.99598397  0.82740929     1.05500
C1520       C  0.32782516  0.00410615  0.82761826     1.08200
C1521       C  0.17327792  0.91984541  0.75268127     1.05700
C1522       C  0.17136705  0.57792538  0.75157279     1.06100
C1523       C  0.32722486  0.57862952  0.75094709     1.05700
C1524       C  0.32816883  0.92191453  0.75122628     1.05200
C1525       C  0.25008040  0.92255012  0.82832338     1.05600
C1526       C  0.25055066  0.57883242  0.82832727     1.05200
H1527       H  0.29381870  0.95671203  0.79368010     0.31800
O1528       O  0.28091204  0.96908829  0.78073647    -1.30700
H1529       H  0.20619839  0.54414571  0.79406277     0.31900
O1530       O  0.21892060  0.53146566  0.78120846    -1.32100
O1531       O  0.19863253  0.66266623  0.99932637    -0.87500
O1532       O  0.20064909  0.83762563  0.99978601    -0.87700
O1533       O  0.16323936  0.74860123  0.54852771    -0.89400
O1534       O  0.16240743  0.74823004  0.95041742    -0.88100
O1535       O  0.19905653  0.74851634  0.91322469    -0.87700
O1536       O  0.20015553  0.74811657  0.58546699    -0.89100
O1537       O  0.16319574  0.80089361  0.99898222    -0.87600
O1538       O  0.16187757  0.70017716  0.00152936    -0.87200
Zr1539     Zr  0.18736198  0.75003912  0.00001810     2.84300
O1540       O  0.21822283  0.78070992  0.96887056    -1.09100
O1541       O  0.21936717  0.71770805  0.52953479    -1.09900
C1542       C  0.17067146  0.67190341  0.00052500     1.05600
C1543       C  0.17251435  0.82909620  0.99951749     1.05500
C1544       C  0.17206973  0.74843160  0.57686292     1.08500
C1545       C  0.17090095  0.74814201  0.92218648     1.06300
H1546       H  0.20646706  0.79243790  0.54201318     0.31800
O1547       O  0.21928749  0.77963556  0.52940226    -1.30100
H1548       H  0.20539653  0.70555195  0.95656137     0.31500
O1549       O  0.21798212  0.71844746  0.96935345    -1.31800
O1550       O  0.29930039  0.83692143  0.99905084    -0.87500
O1551       O  0.29771943  0.66129019  0.00187968    -0.89000
O1552       O  0.24847657  0.79924557  0.58582184    -0.87600
O1553       O  0.24810753  0.79888306  0.91354440    -0.87700
O1554       O  0.25061617  0.69963736  0.91345811    -0.87400
O1555       O  0.24938856  0.69813593  0.58496101    -0.87200
O1556       O  0.33693168  0.75082133  0.55024935    -0.87500
O1557       O  0.33588475  0.74933776  0.95088573    -0.87000
O1558       O  0.29919348  0.75163350  0.58622306    -0.88100
O1559       O  0.29916914  0.75030660  0.91369406    -0.87200
O1560       O  0.24909187  0.83588126  0.54818255    -0.87600
O1561       O  0.24920633  0.66093085  0.54787514    -0.87400
O1562       O  0.25141167  0.66259144  0.95071140    -0.87000
O1563       O  0.24821569  0.83649261  0.94988766    -0.87400
O1564       O  0.33616599  0.79971254  0.00085625    -0.87700
O1565       O  0.33479221  0.69839731  0.00036222    -0.89000
Zr1566     Zr  0.24952237  0.81140640  0.99965869     2.83100
Zr1567     Zr  0.24861466  0.68757781  0.00054056     2.83500
Zr1568     Zr  0.24978766  0.74885790  0.56073809     2.84100
Zr1569     Zr  0.24906806  0.74923248  0.93857441     2.83400
Zr1570     Zr  0.31079191  0.74929381  0.00069575     2.84200
O1571       O  0.27970905  0.71839275  0.96978183    -1.09600
O1572       O  0.28081214  0.77996690  0.53033448    -1.09100
C1573       C  0.32744266  0.82810275  0.99962680     1.05500
C1574       C  0.32583490  0.67009227  0.00135639     1.08200
C1575       C  0.24877396  0.82743242  0.57649574     1.05700
C1576       C  0.24800085  0.82723300  0.92177718     1.06100
C1577       C  0.25177065  0.67152565  0.92254843     1.05700
C1578       C  0.24891392  0.66980689  0.57598276     1.05200
C1579       C  0.32749528  0.75189956  0.57826066     1.05600
C1580       C  0.32732343  0.75042829  0.92262891     1.05200
H1581       H  0.29378385  0.70507006  0.54363458     0.31800
O1582       O  0.28123466  0.71771207  0.53059329    -1.30700
H1583       H  0.29293920  0.79288984  0.95643318     0.31900
O1584       O  0.28026360  0.78013192  0.96922359    -1.32100
C1585       C  0.23608947  0.59509497  0.61938367    -0.10200
C1586       C  0.25003103  0.60181433  0.64755451     0.06000
C1587       C  0.26428799  0.63057604  0.65141175    -0.04000
C1588       C  0.26325699  0.65219459  0.62789788    -0.08400
C1589       C  0.24887695  0.64576147  0.59992339     0.05100
C1590       C  0.23555534  0.61648989  0.59559456    -0.03400
Br1591     Br  0.21520415  0.60405560  0.55860911    -0.03100
H1592       H  0.22517684  0.57307964  0.61588169     0.09000
H1593       H  0.27451235  0.67403328  0.63131325     0.07000
Br1594     Br  0.28768430  0.64123692  0.68702035    -0.03600
C1595       C  0.26600105  0.90130634  0.61996877    -0.10200
C1596       C  0.24842565  0.89751141  0.64657002     0.06000
C1597       C  0.22970946  0.87134566  0.64909443    -0.04000
C1598       C  0.23043289  0.84871265  0.62628250    -0.08400
C1599       C  0.24866636  0.85204080  0.60006156     0.05100
C1600       C  0.26609426  0.87911819  0.59674669    -0.03400
Br1601     Br  0.29157914  0.88683382  0.56179504    -0.03100
H1602       H  0.28007942  0.92154181  0.61735701     0.09000
H1603       H  0.21585372  0.82888685  0.62853982     0.07000
Br1604     Br  0.20035509  0.86699546  0.68142990    -0.03600
C1605       C  0.25380427  0.86786178  0.84443504    -0.10200
C1606       C  0.24916082  0.89865089  0.85273739     0.06000
C1607       C  0.24309978  0.90537402  0.88392931    -0.04000
C1608       C  0.24290268  0.88180673  0.90559391    -0.08400
C1609       C  0.24786029  0.85104500  0.89729751     0.05100
C1610       C  0.25274644  0.84419728  0.86593616    -0.03400
Br1611     Br  0.25793526  0.80346109  0.84970062    -0.03100
H1612       H  0.25802095  0.86186292  0.82077294     0.08600
H1613       H  0.23837724  0.88776007  0.92923462     0.07000
Br1614     Br  0.23331472  0.94555249  0.89932989    -0.03600
C1615       C  0.23376885  0.65147671  0.87287120    -0.10200
C1616       C  0.25255735  0.64777903  0.89856600     0.06000
C1617       C  0.27086595  0.62130983  0.90095798    -0.04000
C1618       C  0.26994360  0.59914541  0.87779900    -0.08400
C1619       C  0.25092956  0.60278957  0.85218760     0.05100
C1620       C  0.23243198  0.62910561  0.85006470    -0.03400
Br1621     Br  0.20253635  0.63432723  0.81842298    -0.03100
H1622       H  0.21912673  0.67139389  0.87106908     0.09000
H1623       H  0.28437290  0.57908387  0.87966753     0.07000
Br1624     Br  0.29858770  0.61483814  0.93437920    -0.03600
C1625       C  0.37081459  0.65286307  0.76554780    -0.10200
C1626       C  0.39798414  0.64755327  0.74940693     0.06000
C1627       C  0.40185015  0.61905810  0.73438964    -0.04000
C1628       C  0.37856139  0.59715424  0.73524787    -0.08400
C1629       C  0.35134208  0.60252728  0.75127413     0.05100
C1630       C  0.34794340  0.63053857  0.76717589    -0.03400
Br1631     Br  0.31432062  0.63852615  0.79418373    -0.03100
H1632       H  0.36780476  0.67410921  0.77800902     0.09000
H1633       H  0.38167631  0.57582512  0.72298110     0.07000
Br1634     Br  0.43767310  0.60870729  0.71124241    -0.03600
C1635       C  0.37030112  0.84519433  0.75772560    -0.10200
C1636       C  0.40021898  0.85350666  0.74994037     0.06000
C1637       C  0.40621714  0.88478092  0.74339165    -0.04000
C1638       C  0.38256552  0.90633227  0.74440686    -0.08400
C1639       C  0.35251241  0.89790050  0.75178295     0.05100
C1640       C  0.34671601  0.86668113  0.75884359    -0.03400
Br1641     Br  0.30782990  0.85081320  0.77140340    -0.03100
H1642       H  0.36504502  0.82162109  0.76344443     0.09000
H1643       H  0.38780096  0.92993754  0.73880885     0.07000
Br1644     Br  0.44553616  0.90034917  0.73182605    -0.03600
C1645       C  0.09751186  0.62072496  0.76814004    -0.10200
C1646       C  0.10102827  0.64684964  0.74971802     0.06000
C1647       C  0.12804587  0.65024281  0.73250655    -0.04000
C1648       C  0.15085856  0.62795536  0.73413504    -0.08400
C1649       C  0.14723047  0.60164629  0.75218454     0.05100
C1650       C  0.12030106  0.59828028  0.76958113    -0.03400
Br1651     Br  0.11409043  0.56463594  0.79714231    -0.03100
H1652       H  0.07717584  0.61801430  0.78192686     0.09000
H1653       H  0.17119473  0.63074556  0.72037067     0.07000
Br1654     Br  0.13421400  0.68340173  0.70429691    -0.03600
C1655       C  0.12805937  0.84755545  0.77272027    -0.10200
C1656       C  0.10250494  0.85087028  0.75359450     0.06000
C1657       C  0.10053035  0.87703035  0.73474647    -0.04000
C1658       C  0.12360804  0.89910004  0.73526542    -0.08400
C1659       C  0.14929870  0.89580861  0.75402827     0.05100
C1660       C  0.15129440  0.86974360  0.77316254    -0.03400
Br1661     Br  0.18417269  0.86395545  0.80149452    -0.03100
H1662       H  0.12980950  0.82778849  0.78761581     0.09000
H1663       H  0.12188353  0.91860278  0.72010383     0.07000
Br1664     Br  0.06823161  0.88275498  0.70569827    -0.03600
C1665       C  0.38161465  0.75908003  0.59465359    -0.10200
C1666       C  0.35110470  0.75343187  0.60289611     0.06000
C1667       C  0.34435122  0.74907294  0.63433662    -0.04000
C1668       C  0.36776721  0.74936997  0.65600927    -0.08400
C1669       C  0.39832354  0.75413080  0.64767182     0.05100
C1670       C  0.40502415  0.75962417  0.61640403    -0.03400
Br1671     Br  0.44514050  0.76883800  0.60104509    -0.03100
H1672       H  0.38752781  0.76321144  0.57094868     0.09000
H1673       H  0.36183942  0.74531275  0.67972222     0.07000
Br1674     Br  0.30418091  0.74165676  0.65031746    -0.03600
C1675       C  0.13088847  0.75579084  0.65401048    -0.10200
C1676       C  0.10126139  0.74619885  0.64656109     0.06000
C1677       C  0.09548359  0.73666958  0.61607675    -0.04000
C1678       C  0.11848502  0.73864029  0.59388765    -0.08400
C1679       C  0.14817899  0.74821589  0.60133988     0.05100
C1680       C  0.15425053  0.75639442  0.63222202    -0.03400
Br1681     Br  0.19346400  0.76895264  0.64729739    -0.03100
H1682       H  0.13611585  0.76297421  0.67716308     0.09000
H1683       H  0.11324174  0.73151482  0.57072925     0.07000
Br1684     Br  0.05785818  0.71806966  0.60324435    -0.03600
C1685       C  0.09417069  0.75433678  0.88090337    -0.10200
C1686       C  0.10191199  0.74566355  0.85095632     0.06000
C1687       C  0.13238707  0.73671697  0.84497992    -0.04000
C1688       C  0.15419650  0.73793049  0.86838335    -0.08400
C1689       C  0.14655376  0.74720588  0.89827818     0.05100
C1690       C  0.11574533  0.75497423  0.90441656    -0.03400
Br1691     Br  0.10057003  0.76756569  0.94378708    -0.03100
H1692       H  0.07103129  0.76113940  0.88618613     0.09000
H1693       H  0.17730529  0.73098979  0.86315071     0.07000
Br1694     Br  0.14596870  0.72080254  0.80618697    -0.03600
C1695       C  0.40407458  0.75896672  0.88144635    -0.10200
C1696       C  0.39646704  0.75140183  0.85108520     0.06000
C1697       C  0.36532988  0.74534832  0.84444846    -0.04000
C1698       C  0.34370503  0.74487863  0.86804684    -0.08400
C1699       C  0.35151316  0.75174851  0.89849050     0.05100
C1700       C  0.38209837  0.76010544  0.90473163    -0.03400
Br1701     Br  0.39552942  0.77588560  0.94360190    -0.03100
H1702       H  0.42730508  0.76482992  0.88714234     0.09000
H1703       H  0.32037617  0.73919255  0.86230957     0.07000
Br1704     Br  0.34952676  0.73779149  0.80406345    -0.03600
C1705       C  0.37109621  0.90277615  0.98410730    -0.10200
C1706       C  0.39649342  0.89851481  0.50373174     0.06000
C1707       C  0.39619626  0.87484421  0.52573971    -0.04000
C1708       C  0.37389044  0.85181535  0.52434242    -0.08400
C1709       C  0.35106461  0.85237496  0.50181327     0.05100
C1710       C  0.34840862  0.88007395  0.98263325    -0.03400
Br1711     Br  0.31538497  0.88703277  0.95469455    -0.03100
H1712       H  0.36808680  0.92365792  0.97108093     0.09000
H1713       H  0.37394297  0.83377318  0.54136894     0.07000
Br1714     Br  0.42413365  0.87430187  0.55955116    -0.03600
C1715       C  0.37571271  0.60038069  0.52029632    -0.10200
C1716       C  0.39885480  0.60169324  0.49816863     0.06000
C1717       C  0.39914139  0.62856595  0.98146823    -0.04000
C1718       C  0.37572806  0.65038159  0.98273558    -0.08400
C1719       C  0.35257186  0.64681447  0.49994995     0.05100
C1720       C  0.35291045  0.62280801  0.52156278    -0.03400
Br1721     Br  0.32440040  0.62094023  0.55482246    -0.03100
H1722       H  0.37587578  0.58227107  0.53725408     0.09000
H1723       H  0.37754289  0.67079574  0.96874750     0.07000
Br1724     Br  0.43213807  0.63658674  0.95379349    -0.03600
C1725       C  0.11849764  0.84334992  0.49427440    -0.10200
C1726       C  0.14906140  0.85180441  0.49874574     0.06000
C1727       C  0.15143926  0.88001573  0.01808929    -0.04000
C1728       C  0.12833651  0.90212933  0.01757071    -0.08400
C1729       C  0.10149514  0.89659727  0.49755532     0.05100
C1730       C  0.09510639  0.86507380  0.49273847    -0.03400
Br1731     Br  0.05569449  0.84915889  0.48214009    -0.03100
H1732       H  0.11254263  0.81946475  0.49131800     0.09000
H1733       H  0.13010624  0.92186366  0.03256215     0.07000
Br1734     Br  0.18483756  0.88695871  0.04563690    -0.03600
C1735       C  0.14250845  0.62907736  0.47286387    -0.10200
C1736       C  0.14838695  0.64658731  0.49921344     0.06000
C1737       C  0.12804356  0.64340765  0.02628271    -0.04000
C1738       C  0.10547046  0.62077830  0.02556754    -0.08400
C1739       C  0.10192198  0.60160514  0.49923027     0.05100
C1740       C  0.11925851  0.60694667  0.47264553    -0.03400
Br1741     Br  0.11036235  0.58590920  0.43508563    -0.03100
H1742       H  0.15558759  0.63308743  0.45222962     0.09000
H1743       H  0.09147468  0.61697831  0.04564037     0.07000
Br1744     Br  0.13323287  0.66633987  0.06335041    -0.03600
C1745       C  0.40521720  0.01280796  0.86767381    -0.10200
C1746       C  0.39859539  0.50234595  0.89761381     0.06000
C1747       C  0.36703051  0.50062985  0.90448509    -0.04000
C1748       C  0.34549239  0.50130216  0.88095882    -0.08400
C1749       C  0.35394991  0.50330819  0.85003588     0.05100
C1750       C  0.38284766  0.01406573  0.84474394    -0.03400
Br1751     Br  0.39590368  0.02906513  0.80545586    -0.03100
H1752       H  0.42841273  0.01878890  0.86171023     0.09000
H1753       H  0.32167174  0.49973151  0.88717615     0.07000
Br1754     Br  0.35035087  0.49645002  0.94499413    -0.03600
C1755       C  0.09580760  0.49225823  0.86915313    -0.10200
C1756       C  0.10420456  0.49813446  0.89967779     0.06000
C1757       C  0.13536289  0.99665720  0.90613394    -0.04000
C1758       C  0.15673054  0.99754981  0.88239668    -0.08400
C1759       C  0.14825003  0.49815550  0.85188680     0.05100
C1760       C  0.11721516  0.49178130  0.84549874    -0.03400
Br1761     Br  0.10165522  0.48080684  0.80571499    -0.03100
H1762       H  0.07227416  0.48747135  0.86346424     0.09000
H1763       H  0.18043792  0.00092435  0.88835009     0.07000
Br1764     Br  0.15229066  0.99795552  0.94678541    -0.03600
C1765       C  0.15459885  0.01262424  0.61793437    -0.10200
C1766       C  0.14832468  0.50056889  0.64817525     0.06000
C1767       C  0.12518159  0.47818436  0.64802545    -0.04000
C1768       C  0.10218590  0.47918669  0.62581502    -0.08400
C1769       C  0.10237478  0.50167647  0.60286066     0.05100
C1770       C  0.13246177  0.01407864  0.59485357    -0.03400
Br1771     Br  0.14470758  0.03216966  0.55657595    -0.03100
H1772       H  0.17741321  0.02055551  0.61279633     0.09000
H1773       H  0.08461178  0.46174382  0.62588891     0.07000
Br1774     Br  0.12574608  0.44417994  0.67587861    -0.03600
C1775       C  0.34463991  0.49156055  0.61774786    -0.10200
C1776       C  0.35206555  0.49876157  0.64822714     0.06000
C1777       C  0.38383298  0.00136149  0.65522838    -0.04000
C1778       C  0.40540902  0.00110753  0.63175507    -0.08400
C1779       C  0.39750420  0.49849893  0.60147531     0.05100
C1780       C  0.36678957  0.49088714  0.59464596    -0.03400
Br1781     Br  0.35297329  0.47749607  0.55500833    -0.03100
H1782       H  0.32140081  0.48573714  0.61177913     0.09000
H1783       H  0.42882613  0.00636364  0.63752580     0.07000
Br1784     Br  0.39970916  0.01027012  0.69531620    -0.03600
C1785       C  0.01222032  0.65190585  0.87796557    -0.10200
C1786       C  0.99657195  0.64598322  0.85055119     0.06000
C1787       C  0.48392729  0.61758081  0.84673270    -0.04000
C1788       C  0.48498828  0.59545238  0.86988138    -0.08400
C1789       C  0.00016738  0.60099096  0.89713377     0.05100
C1790       C  0.01435760  0.62981394  0.90098620    -0.03400
Br1791     Br  0.03901903  0.63995979  0.93590208    -0.03100
H1792       H  0.02369928  0.67365962  0.88122685     0.09000
H1793       H  0.47313706  0.57392221  0.86647236     0.07000
Br1794     Br  0.46062056  0.60769299  0.81081152    -0.03600
C1795       C  0.99647475  0.86678157  0.90702990    -0.10200
C1796       C  0.00070472  0.89754012  0.89839656     0.06000
C1797       C  0.51105171  0.90365167  0.86713759    -0.04000
C1798       C  0.51016143  0.88006569  0.84548444    -0.08400
C1799       C  0.00040730  0.84958354  0.85393300     0.05100
C1800       C  0.99637907  0.84297212  0.88551842    -0.03400
Br1801     Br  0.99011082  0.80255881  0.90202441    -0.03100
H1802       H  0.99308874  0.86097992  0.93088560     0.09000
H1803       H  0.51748098  0.88509154  0.82234920     0.07000
Br1804     Br  0.52745065  0.94178678  0.85301501    -0.03600
C1805       C  0.01331532  0.86863852  0.59471289    -0.10200
C1806       C  0.00280664  0.89816331  0.60227293     0.06000
C1807       C  0.49164639  0.90339795  0.63267676    -0.04000
C1808       C  0.49196600  0.87998773  0.65440360    -0.08400
C1809       C  0.00400590  0.85066634  0.64674499     0.05100
C1810       C  0.01400594  0.84501179  0.61638318    -0.03400
Br1811     Br  0.03018206  0.80638610  0.60262002    -0.03100
H1812       H  0.02126465  0.86381744  0.57172844     0.09000
H1813       H  0.48219335  0.88447187  0.67667318     0.07000
Br1814     Br  0.47305453  0.94127765  0.64522683    -0.03600
C1815       C  0.02174750  0.62750522  0.64536285    -0.10200
C1816       C  0.99803492  0.64893408  0.64649945     0.06000
C1817       C  0.47463215  0.64609757  0.62624163    -0.04000
C1818       C  0.47557592  0.62366775  0.60337887    -0.08400
C1819       C  0.99968938  0.60441701  0.59996905     0.05100
C1820       C  0.02297373  0.60566759  0.62203667    -0.03400
Br1821     Br  0.05803177  0.57948886  0.61983767    -0.03100
H1822       H  0.03984072  0.62832089  0.66221091     0.09000
H1823       H  0.45676566  0.62165934  0.58744466     0.07000
Br1824     Br  0.43931638  0.67192954  0.62880848    -0.03600
O1825       O  0.50434567  0.05131415  0.08729949    -0.87500
O1826       O  0.49990045  0.04885389  0.41309026    -0.87700
O1827       O  0.55117178  0.08781207  0.00124112    -0.89400
O1828       O  0.95188576  0.08825484  0.99809132    -0.88100
O1829       O  0.91485613  0.05115151  0.00019670    -0.87700
O1830       O  0.58759558  0.05003309  0.00051338    -0.89100
O1831       O  0.49903676  0.08607418  0.45023631    -0.87600
O1832       O  0.50356902  0.08811730  0.04970756    -0.87200
Zr1833     Zr  0.50126961  0.06294934  0.99996838     2.84300
O1834       O  0.96987820  0.03107312  0.46895088    -1.09100
O1835       O  0.53116986  0.03183839  0.03146081    -1.09900
C1836       C  0.50511524  0.07940993  0.07791554     1.05600
C1837       C  0.49953786  0.07711345  0.42205102     1.05500
C1838       C  0.57907600  0.07840499  0.00076420     1.08500
C1839       C  0.92376490  0.07937211  0.99867543     1.06300
H1840       H  0.54325586  0.04297935  0.45631163     0.31800
O1841       O  0.53042885  0.03042648  0.46918058    -1.30100
H1842       H  0.95778080  0.04569728  0.04417729     0.31500
O1843       O  0.97032995  0.03256278  0.03157320    -1.31800
O1844       O  0.50420592  0.44944857  0.41527638    -0.87500
O1845       O  0.49978360  0.45046019  0.08770274    -0.89000
O1846       O  0.58613897  0.99645564  0.45110715    -0.87600
O1847       O  0.91406049  0.00306217  0.45072752    -0.87700
O1848       O  0.91418661  0.00163356  0.05031401    -0.87400
O1849       O  0.58614491  0.00015532  0.05047465    -0.87200
O1850       O  0.54966436  0.41280349  0.00072559    -0.87500
O1851       O  0.95290653  0.41192354  0.00449724    -0.87000
O1852       O  0.58648985  0.44978938  0.00076407    -0.88100
O1853       O  0.91583609  0.44889097  0.00327570    -0.87200
O1854       O  0.54984066  0.99616823  0.41371677    -0.87600
O1855       O  0.54969561  0.00099290  0.08782701    -0.87400
O1856       O  0.95051353  0.00190525  0.08778928    -0.87000
O1857       O  0.95012832  0.00123960  0.41304380    -0.87400
O1858       O  0.50223951  0.41232322  0.45207794    -0.87700
O1859       O  0.50017073  0.41288282  0.05088164    -0.89000
Zr1860     Zr  0.49968250  0.99904253  0.43836378     2.83100
Zr1861     Zr  0.50000839  0.00123206  0.06242043     2.83500
Zr1862     Zr  0.56154102  0.00043988  0.00082560     2.84100
Zr1863     Zr  0.93969095  0.00102710  0.00083577     2.83400
Zr1864     Zr  0.50028933  0.43778979  0.00084056     2.84200
O1865       O  0.97035405  0.46960607  0.03142109    -1.09600
O1866       O  0.53152209  0.46891423  0.47073498    -1.09100
C1867       C  0.50384686  0.42120887  0.42384409     1.05500
C1868       C  0.49964692  0.42214909  0.07899960     1.08200
C1869       C  0.57789585  0.99533324  0.42290050     1.05700
C1870       C  0.92214568  0.00258016  0.42245531     1.06100
C1871       C  0.92241557  0.00159046  0.07864256     1.05700
C1872       C  0.57774887  0.00070395  0.07868805     1.05200
C1873       C  0.57770702  0.42143401  0.00058620     1.05600
C1874       C  0.92481286  0.42062914  0.00510077     1.05200
H1875       H  0.54407666  0.45623394  0.04470776     0.31800
O1876       O  0.53130201  0.46883775  0.03181105    -1.30700
H1877       H  0.95668647  0.45515016  0.45808785     0.31900
O1878       O  0.96954433  0.46807702  0.47059797    -1.32100
O1879       O  0.50205441  0.20100837  0.16309973    -0.87500
O1880       O  0.49843143  0.19783559  0.33609514    -0.87700
O1881       O  0.54823731  0.16146350  0.24726631    -0.89400
O1882       O  0.94845345  0.16443611  0.24951052    -0.88100
O1883       O  0.91196656  0.20191873  0.24952012    -0.87700
O1884       O  0.58580133  0.19811064  0.24571922    -0.89100
O1885       O  0.49775996  0.16111427  0.29851930    -0.87600
O1886       O  0.50073131  0.16283203  0.19924093    -0.87200
Zr1887     Zr  0.49881499  0.18750099  0.24921273     2.84300
O1888       O  0.96898421  0.21884647  0.28031789    -1.09100
O1889       O  0.52989146  0.21865530  0.21884249    -1.09900
C1890       C  0.50202321  0.17261049  0.17138300     1.05600
C1891       C  0.49757742  0.16968270  0.32684707     1.05500
C1892       C  0.57644055  0.17000139  0.24565956     1.08500
C1893       C  0.92039678  0.17351392  0.24945887     1.06300
H1894       H  0.54315150  0.20378541  0.29261549     0.31800
O1895       O  0.53066060  0.21722249  0.28032378    -1.30100
H1896       H  0.95589064  0.20715201  0.20521081     0.31500
O1897       O  0.96868108  0.21956261  0.21828033    -1.31800
O1898       O  0.50406533  0.29726196  0.33825461    -0.87500
O1899       O  0.50036217  0.30066319  0.16394280    -0.89000
O1900       O  0.58749508  0.24574221  0.29862186    -0.87600
O1901       O  0.91407076  0.24996790  0.29964058    -0.87700
O1902       O  0.91343441  0.25303705  0.20035126    -0.87400
O1903       O  0.58624571  0.24792466  0.19943895    -0.87200
O1904       O  0.55048737  0.33596245  0.25271958    -0.87500
O1905       O  0.95250933  0.33835068  0.25078680    -0.87000
O1906       O  0.58722706  0.29877861  0.25140763    -0.88100
O1907       O  0.91519284  0.30181568  0.25126804    -0.87200
O1908       O  0.55077665  0.24531553  0.33604957    -0.87600
O1909       O  0.54914450  0.25043937  0.16277832    -0.87400
O1910       O  0.95028382  0.25177062  0.16337457    -0.87000
O1911       O  0.95052274  0.24919306  0.33692278    -0.87400
O1912       O  0.50449315  0.33497731  0.30197271    -0.87700
O1913       O  0.50139998  0.33749407  0.20149911    -0.89000
Zr1914     Zr  0.50025763  0.24813689  0.31188319     2.83100
Zr1915     Zr  0.49991031  0.25062247  0.18851195     2.83500
Zr1916     Zr  0.56169069  0.24854284  0.24953947     2.84100
Zr1917     Zr  0.93880185  0.25096283  0.24991243     2.83400
Zr1918     Zr  0.50092152  0.31141947  0.25126059     2.84200
O1919       O  0.96955628  0.28229234  0.21944188    -1.09600
O1920       O  0.53125441  0.27911001  0.28121835    -1.09100
C1921       C  0.50548188  0.32563915  0.33008447     1.05500
C1922       C  0.50124234  0.32878293  0.17314550     1.08200
C1923       C  0.57884184  0.24462917  0.32680811     1.05700
C1924       C  0.92241284  0.24954522  0.32789618     1.06100
C1925       C  0.92221017  0.25298232  0.17211499     1.05700
C1926       C  0.57724211  0.24880552  0.17127337     1.05200
C1927       C  0.57849466  0.32717452  0.25230848     1.05600
C1928       C  0.92438722  0.33004001  0.25117099     1.05200
H1929       H  0.54428788  0.29363337  0.20694074     0.31800
O1930       O  0.53143509  0.28083308  0.21949866    -1.30700
H1931       H  0.95758531  0.29352004  0.29444945     0.31900
O1932       O  0.97008048  0.28079556  0.28142264    -1.32100
O1933       O  0.83644255  0.50049160  0.19943905    -0.87500
O1934       O  0.66438410  0.49765010  0.19984230    -0.87700
O1935       O  0.75087744  0.45087006  0.16259562    -0.89400
O1936       O  0.74756951  0.04963623  0.16277664    -0.88100
O1937       O  0.74652830  0.08654780  0.20016263    -0.87700
O1938       O  0.75146219  0.41349926  0.19957458    -0.89100
O1939       O  0.70100776  0.50134106  0.16246383    -0.87600
O1940       O  0.80011901  0.50114356  0.16197158    -0.87200
Zr1941     Zr  0.75055925  0.50071325  0.18793787     2.84300
O1942       O  0.71776917  0.03038338  0.21942091    -1.09100
O1943       O  0.78157834  0.46947202  0.21841805    -1.09900
C1944       C  0.82818355  0.50094524  0.17111818     1.05600
C1945       C  0.67304717  0.49938636  0.17153996     1.05500
C1946       C  0.75089153  0.42260203  0.17146091     1.08500
C1947       C  0.74684261  0.07778385  0.17184685     1.06300
H1948       H  0.70762881  0.45556779  0.20581217     0.31800
O1949       O  0.72029032  0.46849181  0.21851301    -1.30100
H1950       H  0.79219978  0.04502485  0.20707237     0.31500
O1951       O  0.77977915  0.03182945  0.21969390    -1.31800
O1952       O  0.66508478  0.49604321  0.30024290    -0.87500
O1953       O  0.83863447  0.50043366  0.29807704    -0.89000
O1954       O  0.70193421  0.41208102  0.25134557    -0.87600
O1955       O  0.69774103  0.08594481  0.24952909    -0.87700
O1956       O  0.79641205  0.08867296  0.25083124    -0.87400
O1957       O  0.80120914  0.41402066  0.24976815    -0.87200
O1958       O  0.75175973  0.44870570  0.33663394    -0.87500
O1959       O  0.74911659  0.04940051  0.33757572    -0.87000
O1960       O  0.75284806  0.41181111  0.29903974    -0.88100
O1961       O  0.74780967  0.08653903  0.30046123    -0.87200
O1962       O  0.66465951  0.44865328  0.25187463    -0.87600
O1963       O  0.83780251  0.45125330  0.24890821    -0.87400
O1964       O  0.83404044  0.05234349  0.25168229    -0.87000
O1965       O  0.66163964  0.04792566  0.25151562    -0.87400
O1966       O  0.70170042  0.49655482  0.33745889    -0.87700
O1967       O  0.80250003  0.49946018  0.33571772    -0.89000
Zr1968     Zr  0.68947879  0.49844986  0.25018900     2.83100
Zr1969     Zr  0.81189656  0.50067662  0.24946559     2.83500
Zr1970     Zr  0.75137684  0.43805083  0.24964365     2.84100
Zr1971     Zr  0.74781317  0.06171776  0.25048976     2.83400
Zr1972     Zr  0.75152447  0.49924121  0.31237289     2.84200
O1973       O  0.77920957  0.03128698  0.28147321    -1.09600
O1974       O  0.72081435  0.46824272  0.28116105    -1.09100
C1975       C  0.67358708  0.49540191  0.32849188     1.05500
C1976       C  0.83056241  0.49995900  0.32640612     1.08200
C1977       C  0.67373105  0.42050423  0.25243789     1.05700
C1978       C  0.66990491  0.07636658  0.25046953     1.06100
C1979       C  0.82465295  0.08052117  0.25152103     1.05700
C1980       C  0.82917464  0.42291472  0.24919174     1.05200
C1981       C  0.75222197  0.42053801  0.32732594     1.05600
C1982       C  0.74844464  0.07765558  0.32863275     1.05200
H1983       H  0.79518229  0.45629365  0.29306885     0.31800
O1984       O  0.78213524  0.46901643  0.28062069    -1.30700
H1985       H  0.70494409  0.04251848  0.29478000     0.31900
O1986       O  0.71796737  0.03014322  0.28193215    -1.32100
O1987       O  0.69866756  0.16315635  0.50026202    -0.87500
O1988       O  0.70047707  0.33706645  0.49787752    -0.87700
O1989       O  0.66368923  0.25097982  0.04980085    -0.89400
O1990       O  0.66425408  0.24757958  0.44796317    -0.88100
O1991       O  0.70157849  0.24715711  0.41113539    -0.87700
O1992       O  0.70036252  0.25021112  0.08697053    -0.89100
O1993       O  0.66356814  0.30016583  0.49543465    -0.87600
O1994       O  0.66177377  0.20046440  0.50191138    -0.87200
Zr1995     Zr  0.68787350  0.24994375  0.49879899     2.84300
O1996       O  0.71927158  0.28042980  0.46787462    -1.09100
O1997       O  0.71921092  0.21894120  0.03051360    -1.09900
C1998       C  0.67057107  0.17217241  0.50154704     1.05600
C1999       C  0.67246591  0.32844322  0.49605392     1.05500
C2000       C  0.67236270  0.25092525  0.07816413     1.08500
C2001       C  0.67336501  0.24706346  0.41977519     1.06300
H2002       H  0.70717418  0.29407267  0.04357100     0.31800
O2003       O  0.71975531  0.28112051  0.03086343    -1.30100
H2004       H  0.70652448  0.20513732  0.45594163     0.31500
O2005       O  0.71896262  0.21823482  0.46868004    -1.31800
O2006       O  0.79895838  0.33723708  0.50006235    -0.87500
O2007       O  0.79903963  0.16263058  0.50149081    -0.89000
O2008       O  0.75073116  0.30037856  0.08669567    -0.87600
O2009       O  0.75220785  0.29844946  0.41221942    -0.87700
O2010       O  0.75287949  0.19829756  0.41438864    -0.87400
O2011       O  0.74685794  0.19888673  0.08591126    -0.87200
O2012       O  0.83660466  0.24938528  0.05129930    -0.87500
O2013       O  0.83701748  0.24950288  0.45168526    -0.87000
O2014       O  0.79895276  0.25099093  0.08735754    -0.88100
O2015       O  0.80097607  0.24774734  0.41401764    -0.87200
O2016       O  0.75251626  0.33735780  0.04948725    -0.87600
O2017       O  0.74688191  0.16177629  0.04866616    -0.87400
O2018       O  0.75102197  0.16143501  0.45174132    -0.87000
O2019       O  0.75029726  0.33622494  0.44887443    -0.87400
O2020       O  0.83609255  0.30030213  0.50163429    -0.87700
O2021       O  0.83614543  0.19973965  0.50034736    -0.89000
Zr2022     Zr  0.74969554  0.31168555  0.49912258     2.83100
Zr2023     Zr  0.74912026  0.18782295  0.50077384     2.83500
Zr2024     Zr  0.74970887  0.24966602  0.06194250     2.84100
Zr2025     Zr  0.75065442  0.24881950  0.43805052     2.83400
Zr2026     Zr  0.81128557  0.24988259  0.50107295     2.84200
O2027       O  0.78063810  0.21847029  0.47023378    -1.09600
O2028       O  0.78115430  0.28042255  0.03180282    -1.09100
C2029       C  0.82704273  0.32854977  0.50092733     1.05500
C2030       C  0.82717851  0.17149449  0.50084527     1.08200
C2031       C  0.75215427  0.32866501  0.07764109     1.05700
C2032       C  0.75174642  0.32680460  0.42083921     1.06100
C2033       C  0.75254085  0.17015048  0.42357132     1.05700
C2034       C  0.74588146  0.17059679  0.07682373     1.05200
C2035       C  0.82718386  0.25059204  0.07927533     1.05600
C2036       C  0.82896776  0.24835350  0.42332975     1.05200
H2037       H  0.79321879  0.20509015  0.04482349     0.31800
O2038       O  0.78089923  0.21806461  0.03188249    -1.30700
H2039       H  0.79401014  0.29297933  0.45636454     0.31900
O2040       O  0.78106458  0.28036137  0.46902561    -1.32100
C2041       C  0.73075921  0.09606006  0.12018760    -0.10200
C2042       C  0.74635030  0.10171306  0.14774777     0.06000
C2043       C  0.76187452  0.12979431  0.15128133    -0.04000
C2044       C  0.76049719  0.15193159  0.12826196    -0.08400
C2045       C  0.74484693  0.14651336  0.10078396     0.05100
C2046       C  0.73003077  0.11793908  0.09671364    -0.03400
Br2047     Br  0.70755469  0.10736804  0.06042718    -0.03100
H2048       H  0.71891348  0.07450448  0.11690485     0.09000
H2049       H  0.77289653  0.17315131  0.13141557     0.07000
Br2050     Br  0.78826698  0.13811823  0.18530543    -0.03600
C2051       C  0.76674429  0.40371966  0.12026266    -0.10200
C2052       C  0.75050248  0.39874801  0.14743635     0.06000
C2053       C  0.73412802  0.37116933  0.15096946    -0.04000
C2054       C  0.73587653  0.34850565  0.12839417    -0.08400
C2055       C  0.75248363  0.35311089  0.10133869     0.05100
C2056       C  0.76755684  0.38154900  0.09713008    -0.03400
Br2057     Br  0.79022831  0.39202148  0.06098519    -0.03100
H2058       H  0.77907464  0.42499645  0.11702255     0.09000
H2059       H  0.72303995  0.32764706  0.13142187     0.07000
Br2060     Br  0.70626473  0.36454207  0.18426771    -0.03600
C2061       C  0.77388278  0.37299755  0.35044119    -0.10200
C2062       C  0.75186690  0.39636162  0.35103840     0.06000
C2063       C  0.72984695  0.39635680  0.37452949    -0.04000
C2064       C  0.73042406  0.37369415  0.39712215    -0.08400
C2065       C  0.75245840  0.35047764  0.39669157     0.05100
C2066       C  0.77442552  0.35026289  0.37312963    -0.03400
Br2067     Br  0.80675333  0.32073611  0.37215729    -0.03100
H2068       H  0.79108848  0.37281357  0.33266189     0.08600
H2069       H  0.71310809  0.37379761  0.41477251     0.07000
Br2070     Br  0.69711811  0.42541394  0.37572340    -0.03600
C2071       C  0.73684706  0.15230401  0.37228075    -0.10200
C2072       C  0.75254364  0.14626894  0.39957782     0.06000
C2073       C  0.76717973  0.11769959  0.40319955    -0.04000
C2074       C  0.76505366  0.09564436  0.38001573    -0.08400
C2075       C  0.74917153  0.10162960  0.35268978     0.05100
C2076       C  0.73510698  0.13054951  0.34892415    -0.03400
Br2077     Br  0.71182462  0.14190601  0.31344089    -0.03100
H2078       H  0.72531868  0.17405208  0.36922463     0.09000
H2079       H  0.77664226  0.07393449  0.38306865     0.07000
Br2080     Br  0.79241994  0.10823928  0.43789082    -0.03600
C2081       C  0.86671965  0.15717341  0.26069739    -0.10200
C2082       C  0.89593674  0.14963933  0.24960066     0.06000
C2083       C  0.90090530  0.11942881  0.23886582    -0.04000
C2084       C  0.87747714  0.09775632  0.24013416    -0.08400
C2085       C  0.84838150  0.10508830  0.25132487     0.05100
C2086       C  0.84304310  0.13550413  0.26148572    -0.03400
Br2087     Br  0.80456429  0.14922571  0.27760430    -0.03100
H2088       H  0.86221482  0.18009629  0.26912357     0.09000
H2089       H  0.88203402  0.07493104  0.23161790     0.07000
Br2090     Br  0.93832138  0.10599274  0.22030437    -0.03600
C2091       C  0.87056706  0.34612330  0.24391037    -0.10200
C2092       C  0.90066587  0.35449604  0.25099942     0.06000
C2093       C  0.90695423  0.38586580  0.25699524    -0.04000
C2094       C  0.88333007  0.40736292  0.25642007    -0.08400
C2095       C  0.85324087  0.39888693  0.24934121     0.05100
C2096       C  0.84712717  0.36769332  0.24267193    -0.03400
Br2097     Br  0.80801282  0.35224770  0.22999804    -0.03100
H2098       H  0.86509804  0.32250627  0.23855239     0.09000
H2099       H  0.88871669  0.43104465  0.26161159     0.07000
Br2100     Br  0.94672687  0.40198845  0.26623102    -0.03600
C2101       C  0.59752684  0.12159788  0.26662797    -0.10200
C2102       C  0.59993918  0.14557062  0.24533993     0.06000
C2103       C  0.62552932  0.14640572  0.22573034    -0.04000
C2104       C  0.64807383  0.12380853  0.22802840    -0.08400
C2105       C  0.64569229  0.09996589  0.24943986     0.05100
C2106       C  0.62023392  0.09918748  0.26909396    -0.03400
Br2107     Br  0.61681160  0.07007867  0.30178165    -0.03100
H2108       H  0.57841606  0.12096900  0.28230495     0.09000
H2109       H  0.66739192  0.12458411  0.21260865     0.07000
Br2110     Br  0.63024338  0.17648634  0.19408163    -0.03600
C2111       C  0.63175280  0.34427780  0.26359662    -0.10200
C2112       C  0.60237473  0.35156646  0.25298982     0.06000
C2113       C  0.59660360  0.38216830  0.24367219    -0.04000
C2114       C  0.61997377  0.40391939  0.24442033    -0.08400
C2115       C  0.64963887  0.39636997  0.25383157     0.05100
C2116       C  0.65512128  0.36621726  0.26437714    -0.03400
Br2117     Br  0.69306136  0.35376038  0.28239857    -0.03100
H2118       H  0.63656007  0.32139045  0.27187667     0.09000
H2119       H  0.61478730  0.42703765  0.23715040     0.07000
Br2120     Br  0.55805699  0.39651579  0.22829988    -0.03600
C2121       C  0.88038016  0.26135985  0.09586470    -0.10200
C2122       C  0.85074092  0.25197194  0.10372678     0.06000
C2123       C  0.84458390  0.24468365  0.13469189    -0.04000
C2124       C  0.86818024  0.24510324  0.15619949    -0.08400
C2125       C  0.89802322  0.25372586  0.14817328     0.05100
C2126       C  0.90368743  0.26287354  0.11762519    -0.03400
Br2127     Br  0.94176296  0.27985669  0.10395311    -0.03100
H2128       H  0.88545636  0.26833555  0.07262700     0.09000
H2129       H  0.86298913  0.23849610  0.17951123     0.07000
Br2130     Br  0.80486347  0.23387073  0.14994429    -0.03600
C2131       C  0.63084304  0.25793241  0.15497495    -0.10200
C2132       C  0.60119139  0.24871959  0.14710516     0.06000
C2133       C  0.59536621  0.24021626  0.11639190    -0.04000
C2134       C  0.61848984  0.24242596  0.09445704    -0.08400
C2135       C  0.64830679  0.25116058  0.10235563     0.05100
C2136       C  0.65425802  0.25900649  0.13330610    -0.03400
Br2137     Br  0.69309383  0.27268984  0.14830480    -0.03100
H2138       H  0.63596823  0.26468958  0.17828044     0.09000
H2139       H  0.61312598  0.23636932  0.07104923     0.07000
Br2140     Br  0.55735674  0.22303920  0.10274869    -0.03600
C2141       C  0.59980799  0.26225409  0.37634140    -0.10200
C2142       C  0.60305010  0.24361306  0.35044966     0.06000
C2143       C  0.63003978  0.22621335  0.34700473    -0.04000
C2144       C  0.65279375  0.22753439  0.36966031    -0.08400
C2145       C  0.64939792  0.24635459  0.39566914     0.05100
C2146       C  0.62276917  0.26428845  0.39837030    -0.03400
Br2147     Br  0.61781274  0.29487340  0.42956723    -0.03100
H2148       H  0.57984131  0.27659236  0.37871941     0.09000
H2149       H  0.67308840  0.21365176  0.36704345     0.07000
Br2150     Br  0.63658058  0.19959709  0.31245867    -0.03600
C2151       C  0.90654570  0.24691726  0.38276785    -0.10200
C2152       C  0.89801117  0.24930571  0.35182664     0.06000
C2153       C  0.86644620  0.25098603  0.34490975    -0.04000
C2154       C  0.84492617  0.25011749  0.36849061    -0.08400
C2155       C  0.85345107  0.24811551  0.39946079     0.05100
C2156       C  0.88498555  0.24624973  0.40636331    -0.03400
Br2157     Br  0.90133080  0.24185893  0.44698530    -0.03100
H2158       H  0.93038322  0.24533065  0.38891746     0.09000
H2159       H  0.82108536  0.25134334  0.36228251     0.07000
Br2160     Br  0.84984896  0.25485655  0.30427676    -0.03600
C2161       C  0.87012568  0.40315455  0.48682077    -0.10200
C2162       C  0.90076781  0.39648603  0.00680324     0.06000
C2163       C  0.90480837  0.36798239  0.02179212    -0.04000
C2164       C  0.88164104  0.34566925  0.02063080    -0.08400
C2165       C  0.85399874  0.35116652  0.00514049     0.05100
C2166       C  0.84759420  0.38045762  0.48483140    -0.03400
Br2167     Br  0.81488312  0.38715368  0.45632609    -0.03100
H2168       H  0.86754879  0.42384614  0.47340361     0.09000
H2169       H  0.88512556  0.32403483  0.03227578     0.07000
Br2170     Br  0.94041121  0.35869630  0.04572211    -0.03600
C2171       C  0.87384296  0.09932307  0.01694087    -0.10200
C2172       C  0.89963844  0.10324011  0.99828575     0.06000
C2173       C  0.89935382  0.12893925  0.47870076    -0.04000
C2174       C  0.87623863  0.15111313  0.48038131    -0.08400
C2175       C  0.85250201  0.14771432  0.99936966     0.05100
C2176       C  0.85043243  0.12111924  0.01759144    -0.03400
Br2177     Br  0.81704086  0.11404300  0.04513796    -0.03100
H2178       H  0.87205155  0.07931651  0.03150476     0.09000
H2179       H  0.87742131  0.17094911  0.46552343     0.07000
Br2180     Br  0.93032844  0.13442614  0.44815411    -0.03600
C2181       C  0.61899881  0.34397885  0.00018518    -0.10200
C2182       C  0.64976868  0.35305893  0.00007500     0.06000
C2183       C  0.65479061  0.38406221  0.49068948    -0.04000
C2184       C  0.63143147  0.40569242  0.49292603    -0.08400
C2185       C  0.60176205  0.39716583  0.00032653     0.05100
C2186       C  0.59522413  0.36529039  0.99979179    -0.03400
Br2187     Br  0.55491548  0.34802972  0.99727241    -0.03100
H2188       H  0.61308041  0.31987554  0.00008870     0.09000
H2189       H  0.63705641  0.42954816  0.48901653     0.07000
Br2190     Br  0.69407543  0.39990291  0.47927845    -0.03600
C2191       C  0.64705888  0.12611307  0.97571699    -0.10200
C2192       C  0.64843535  0.14819180  0.99907604     0.06000
C2193       C  0.62310092  0.14738813  0.52377145    -0.04000
C2194       C  0.60086775  0.12429228  0.52276031    -0.08400
C2195       C  0.60316659  0.10206714  0.00000253     0.05100
C2196       C  0.62467561  0.10315219  0.97607395    -0.03400
Br2197     Br  0.62321813  0.07477103  0.94256765    -0.03100
H2198       H  0.66322399  0.12692090  0.95700246     0.09000
H2199       H  0.58329130  0.12377459  0.54016777     0.07000
Br2200     Br  0.62102276  0.17634680  0.55665914    -0.03600
C2201       C  0.90792979  0.50330482  0.36752806    -0.10200
C2202       C  0.89735724  0.00365298  0.39914422     0.06000
C2203       C  0.86661192  0.99620496  0.40596974    -0.04000
C2204       C  0.84458543  0.99665203  0.38283704    -0.08400
C2205       C  0.85194841  0.00440141  0.35252031     0.05100
C2206       C  0.88652211  0.50385987  0.34373965    -0.03400
Br2207     Br  0.90283594  0.51142446  0.30354749    -0.03100
H2208       H  0.93166540  0.50688655  0.36179968     0.09000
H2209       H  0.82148453  0.99019671  0.38867167     0.07000
Br2210     Br  0.85232231  0.98383601  0.44573738    -0.03600
C2211       C  0.59404780  0.99029477  0.36834650    -0.10200
C2212       C  0.60241602  0.99328711  0.39926706     0.06000
C2213       C  0.63610648  0.49949621  0.40687948    -0.04000
C2214       C  0.65767189  0.49893528  0.38329079    -0.08400
C2215       C  0.64711476  0.99327486  0.35197392     0.05100
C2216       C  0.61576409  0.98948953  0.34494002    -0.03400
Br2217     Br  0.60005051  0.98158962  0.30451879    -0.03100
H2218       H  0.57026984  0.98816776  0.36211070     0.09000
H2219       H  0.68127024  0.50312468  0.38917220     0.07000
Br2220     Br  0.65208031  0.50800088  0.44704405    -0.03600
C2221       C  0.64988492  0.52208980  0.12455498    -0.10200
C2222       C  0.64714877  0.99874486  0.14914101     0.06000
C2223       C  0.61687943  0.98913938  0.15506743    -0.04000
C2224       C  0.59490274  0.99039548  0.13197314    -0.08400
C2225       C  0.60214103  0.00042168  0.10234802     0.05100
C2226       C  0.62724119  0.52346974  0.10190689    -0.03400
Br2227     Br  0.63047755  0.55530568  0.07180060    -0.03100
H2228       H  0.66814109  0.53881005  0.12432260     0.09000
H2229       H  0.57199363  0.98278741  0.13718946     0.07000
Br2230     Br  0.60346555  0.97249988  0.19331981    -0.03600
C2231       C  0.84499748  0.99550517  0.11912886    -0.10200
C2232       C  0.85268499  0.00241148  0.14957854     0.06000
C2233       C  0.88309200  0.51032280  0.15378601    -0.04000
C2234       C  0.90490353  0.51085732  0.13051532    -0.08400
C2235       C  0.89786302  0.00146478  0.10249374     0.05100
C2236       C  0.86693849  0.99456342  0.09589201    -0.03400
Br2237     Br  0.85235000  0.98162727  0.05642782    -0.03100
H2238       H  0.82166460  0.98998164  0.11325503     0.09000
H2239       H  0.92766213  0.51875852  0.13598496     0.07000
Br2240     Br  0.89769396  0.52172168  0.19360338    -0.03600
C2241       C  0.51259673  0.15151282  0.37855936    -0.10200
C2242       C  0.49733381  0.14562422  0.35087985     0.06000
C2243       C  0.98415922  0.11720521  0.34661364    -0.04000
C2244       C  0.98566535  0.09536634  0.36998294    -0.08400
C2245       C  0.49928532  0.10102294  0.39798510     0.05100
C2246       C  0.51372363  0.12970010  0.40194348    -0.03400
Br2247     Br  0.53696736  0.14015471  0.43778579    -0.03100
H2248       H  0.52429327  0.17313354  0.38189965     0.09000
H2249       H  0.97440637  0.07350303  0.36664639     0.07000
Br2250     Br  0.95986753  0.10702953  0.31147895    -0.03600
C2251       C  0.51101959  0.36658992  0.40779957    -0.10200
C2252       C  0.50552319  0.39722419  0.39942810     0.06000
C2253       C  0.98269165  0.39978156  0.37259912    -0.04000
C2254       C  0.98436385  0.37725447  0.34978676    -0.08400
C2255       C  0.50744354  0.34963215  0.35455825     0.05100
C2256       C  0.51202697  0.34298354  0.38602052    -0.03400
Br2257     Br  0.52034892  0.30271893  0.40175874    -0.03100
H2258       H  0.51453584  0.36074051  0.43162651     0.09000
H2259       H  0.97186377  0.38061482  0.32870304     0.07000
Br2260     Br  0.95674003  0.43436110  0.36489210    -0.03600
C2261       C  0.51808579  0.37248201  0.09968686    -0.10200
C2262       C  0.49952649  0.39841325  0.10317087     0.06000
C2263       C  0.98104855  0.40095258  0.12876584    -0.04000
C2264       C  0.98187145  0.37800593  0.15115293    -0.08400
C2265       C  0.50167171  0.35283888  0.14921213     0.05100
C2266       C  0.51930532  0.34983548  0.12230152    -0.03400
Br2267     Br  0.54689745  0.31635695  0.11567945    -0.03100
H2268       H  0.53214565  0.37004260  0.07944292     0.09000
H2269       H  0.96620694  0.37925762  0.17027411     0.07000
Br2270     Br  0.95011437  0.43184446  0.13223603    -0.03600
C2271       C  0.52493320  0.12554501  0.14902561    -0.10200
C2272       C  0.50360376  0.14944954  0.14691185     0.06000
C2273       C  0.98490376  0.15193894  0.12083033    -0.04000
C2274       C  0.98570200  0.12874235  0.09876577    -0.08400
C2275       C  0.50637824  0.10384669  0.10124771     0.05100
C2276       C  0.52696012  0.10319862  0.12605089    -0.03400
Br2277     Br  0.55998993  0.07440546  0.12805980    -0.03100
H2278       H  0.54060805  0.12476169  0.16817254     0.09000
H2279       H  0.96951807  0.12937776  0.08005722     0.07000
Br2280     Br  0.95573206  0.18439901  0.11568074    -0.03600
O2281       O  0.50075608  0.04952897  0.58788357    -0.87500
O2282       O  0.50267972  0.05054156  0.91322633    -0.87700
O2283       O  0.54945100  0.08672051  0.50101016    -0.89400
O2284       O  0.95058188  0.08797428  0.49766249    -0.88100
O2285       O  0.91377552  0.05067027  0.49922456    -0.87700
O2286       O  0.58626730  0.04933203  0.49864044    -0.89100
O2287       O  0.50400318  0.08796494  0.95023674    -0.87600
O2288       O  0.49936492  0.08673317  0.55070376    -0.87200
Zr2289     Zr  0.49960808  0.06165100  0.50037628     2.84300
O2290       O  0.97045156  0.03149811  0.96934816    -1.09100
O2291       O  0.53046972  0.03058863  0.53100491    -1.09900
C2292       C  0.50027945  0.07776948  0.57893251     1.05600
C2293       C  0.50402549  0.07877559  0.92213616     1.05500
C2294       C  0.57746342  0.07764358  0.49970004     1.08500
C2295       C  0.92249381  0.07896951  0.49788549     1.06300
H2296       H  0.54507137  0.04389641  0.95647435     0.31800
O2297       O  0.53182918  0.03154029  0.96910764    -1.30100
H2298       H  0.95635899  0.04460913  0.54410154     0.31500
O2299       O  0.96913892  0.03181901  0.53138081    -1.31800
O2300       O  0.49951207  0.44865286  0.91381660    -0.87500
O2301       O  0.50139078  0.45223781  0.58892152    -0.89000
O2302       O  0.58723745  0.99781203  0.95179256    -0.87600
O2303       O  0.91449483  0.00328420  0.95143720    -0.87700
O2304       O  0.91262976  0.99984338  0.54864727    -0.87400
O2305       O  0.58640607  0.00116398  0.54966427    -0.87200
O2306       O  0.54945481  0.41306189  0.50090256    -0.87500
O2307       O  0.94890567  0.41342981  0.50439439    -0.87000
O2308       O  0.58658190  0.44975680  0.50136693    -0.88100
O2309       O  0.91233342  0.45086561  0.50222767    -0.87200
O2310       O  0.55117003  0.99737425  0.91411811    -0.87600
O2311       O  0.54958172  0.00229644  0.58671027    -0.87400
O2312       O  0.94918768  0.99803884  0.58589243    -0.87000
O2313       O  0.95053725  0.00239602  0.91373153    -0.87400
O2314       O  0.50086735  0.41177793  0.95131311    -0.87700
O2315       O  0.50184084  0.41439625  0.55239589    -0.89000
Zr2316     Zr  0.50074191  0.00064635  0.93809288     2.83100
Zr2317     Zr  0.49978943  0.99982771  0.56199877     2.83500
Zr2318     Zr  0.56090792  0.99922222  0.50021863     2.84100
Zr2319     Zr  0.93899460  0.00063735  0.49995013     2.83400
Zr2320     Zr  0.50040506  0.43835691  0.50176183     2.84200
O2321       O  0.96907716  0.46949206  0.53289309    -1.09600
O2322       O  0.53122559  0.46862309  0.96988077    -1.09100
C2323       C  0.49991305  0.42050628  0.92306904     1.05500
C2324       C  0.50177800  0.42389554  0.58047357     1.08200
C2325       C  0.57916222  0.99657878  0.92350398     1.05700
C2326       C  0.92248371  0.00345052  0.92308410     1.06100
C2327       C  0.92101247  0.99805167  0.57682122     1.05700
C2328       C  0.57768062  0.00260174  0.57782609     1.05200
C2329       C  0.57752538  0.42150931  0.50080302     1.05600
C2330       C  0.92086272  0.42256572  0.50391511     1.05200
H2331       H  0.54415232  0.45710628  0.54530482     0.31800
O2332       O  0.53137038  0.46967765  0.53239056    -1.30700
H2333       H  0.95798534  0.45511622  0.95680797     0.31900
O2334       O  0.97061105  0.46824978  0.96935455    -1.32100
O2335       O  0.49728587  0.20041237  0.66314624    -0.87500
O2336       O  0.50059110  0.19967379  0.83733161    -0.87700
O2337       O  0.54745463  0.16206394  0.74803924    -0.89400
O2338       O  0.94820058  0.16305452  0.75050099    -0.88100
O2339       O  0.91149501  0.20052420  0.75127052    -0.87700
O2340       O  0.58470913  0.19896351  0.74770666    -0.89100
O2341       O  0.49883006  0.16281511  0.79982679    -0.87600
O2342       O  0.49812260  0.16306504  0.70021432    -0.87200
Zr2343     Zr  0.49818346  0.18822883  0.75000485     2.84300
O2344       O  0.96818047  0.21764798  0.78180981    -1.09100
O2345       O  0.52926221  0.21901949  0.71904733    -1.09900
C2346       C  0.49751041  0.17214235  0.67209450     1.05600
C2347       C  0.49980713  0.17153558  0.82809703     1.05500
C2348       C  0.57563472  0.17077287  0.74717699     1.08500
C2349       C  0.92014347  0.17221622  0.75075752     1.06300
H2350       H  0.54286129  0.20537836  0.79288631     0.31800
O2351       O  0.53014972  0.21853562  0.78052832    -1.30100
H2352       H  0.95487596  0.20657731  0.70634394     0.31500
O2353       O  0.96779678  0.21886920  0.71939937    -1.31800
O2354       O  0.50178022  0.29929988  0.83756286    -0.87500
O2355       O  0.50201287  0.30052914  0.66326443    -0.89000
O2356       O  0.58615039  0.24752009  0.79918254    -0.87600
O2357       O  0.91343268  0.24924162  0.80127576    -0.87700
O2358       O  0.91244588  0.25420166  0.70167992    -0.87400
O2359       O  0.58582644  0.24905337  0.69938841    -0.87200
O2360       O  0.54926040  0.33773097  0.75008855    -0.87500
O2361       O  0.95012072  0.33637285  0.75308298    -0.87000
O2362       O  0.58592289  0.30031173  0.74924536    -0.88100
O2363       O  0.91290734  0.29975417  0.75304549    -0.87200
O2364       O  0.55046035  0.24809923  0.83732005    -0.87600
O2365       O  0.54845122  0.24947888  0.66297576    -0.87400
O2366       O  0.94926512  0.25440947  0.66459909    -0.87000
O2367       O  0.94998656  0.24620872  0.83843440    -0.87400
O2368       O  0.50081570  0.33697886  0.80087435    -0.87700
O2369       O  0.50123980  0.33724719  0.70093603    -0.89000
Zr2370     Zr  0.50028911  0.24956959  0.81231619     2.83100
Zr2371     Zr  0.49895596  0.25055117  0.68839076     2.83500
Zr2372     Zr  0.56096300  0.24959307  0.74952551     2.84100
Zr2373     Zr  0.93782310  0.24977504  0.75139057     2.83400
Zr2374     Zr  0.50014925  0.31205198  0.75081226     2.84200
O2375       O  0.96858335  0.28107495  0.72104071    -1.09600
O2376       O  0.53109826  0.28066920  0.78132894    -1.09100
C2377       C  0.50163437  0.32758696  0.82891852     1.05500
C2378       C  0.50245014  0.32866167  0.67262381     1.08200
C2379       C  0.57837705  0.24749106  0.82765576     1.05700
C2380       C  0.92192360  0.24736295  0.82943248     1.06100
C2381       C  0.92119452  0.25574929  0.67341730     1.05700
C2382       C  0.57667128  0.24919041  0.67121281     1.05200
C2383       C  0.57722837  0.32877131  0.74910890     1.05600
C2384       C  0.92192733  0.32797672  0.75346334     1.05200
H2385       H  0.54320353  0.29363114  0.70653821     0.31800
O2386       O  0.53032714  0.28102342  0.71925891    -1.30700
H2387       H  0.95639465  0.29224070  0.79636590     0.31900
O2388       O  0.96889452  0.27960202  0.78325455    -1.32100
O2389       O  0.83696464  0.49950352  0.70163406    -0.87500
O2390       O  0.66318634  0.50199667  0.70243337    -0.87700
O2391       O  0.75063825  0.45096409  0.66357608    -0.89400
O2392       O  0.74638191  0.04943400  0.66199506    -0.88100
O2393       O  0.74626282  0.08647273  0.69934464    -0.87700
O2394       O  0.75089443  0.41423188  0.70113776    -0.89100
O2395       O  0.69971438  0.50267129  0.66516016    -0.87600
O2396       O  0.80053033  0.50107989  0.66428999    -0.87200
Zr2397     Zr  0.75028231  0.50083925  0.68898943     2.84300
O2398       O  0.71768398  0.03060124  0.71892503    -1.09100
O2399       O  0.78063004  0.46939616  0.71992487    -1.09900
C2400       C  0.82861711  0.50058297  0.67343341     1.05600
C2401       C  0.67160137  0.50284766  0.67423463     1.05500
C2402       C  0.75065611  0.42279209  0.67279025     1.08500
C2403       C  0.74594394  0.07762744  0.67111130     1.06300
H2404       H  0.70648573  0.45719527  0.70720438     0.31800
O2405       O  0.71928735  0.46991425  0.71996715    -1.30100
H2406       H  0.79226958  0.04402610  0.70585747     0.31500
O2407       O  0.77968626  0.03124585  0.71874741    -1.31800
O2408       O  0.66468682  0.49846582  0.80132932    -0.87500
O2409       O  0.83789335  0.50160441  0.79936575    -0.89000
O2410       O  0.70008644  0.41371767  0.75077417    -0.87600
O2411       O  0.69778008  0.08649897  0.74957652    -0.87700
O2412       O  0.79750766  0.08772392  0.75011913    -0.87400
O2413       O  0.79864109  0.41334013  0.75311880    -0.87200
O2414       O  0.74983623  0.45268425  0.83909126    -0.87500
O2415       O  0.75047317  0.05138789  0.83660162    -0.87000
O2416       O  0.74726475  0.41547360  0.80217489    -0.88100
O2417       O  0.75009606  0.08780837  0.79891398    -0.87200
O2418       O  0.66327033  0.45089935  0.75034020    -0.87600
O2419       O  0.83599410  0.44979214  0.75135119    -0.87400
O2420       O  0.83488063  0.05086653  0.74989058    -0.87000
O2421       O  0.66151697  0.04867606  0.75021036    -0.87400
O2422       O  0.70136528  0.49885372  0.83847886    -0.87700
O2423       O  0.80152897  0.50296048  0.83683414    -0.89000
Zr2424     Zr  0.68905099  0.50086726  0.75136493     2.83100
Zr2425     Zr  0.81150415  0.50027196  0.75075338     2.83500
Zr2426     Zr  0.74965848  0.43913619  0.75139433     2.84100
Zr2427     Zr  0.74813701  0.06201466  0.74948940     2.83400
Zr2428     Zr  0.75085028  0.50168563  0.81293119     2.84200
O2429       O  0.77961335  0.03163822  0.78027026    -1.09600
O2430       O  0.71972592  0.47048719  0.78245061    -1.09100
C2431       C  0.67329253  0.49751769  0.82952854     1.05500
C2432       C  0.82959816  0.50293890  0.82758456     1.08200
C2433       C  0.67199916  0.42253426  0.75059378     1.05700
C2434       C  0.66979427  0.07707067  0.74996057     1.06100
C2435       C  0.82565730  0.07907702  0.75041148     1.05700
C2436       C  0.82681093  0.42159391  0.75244331     1.05200
C2437       C  0.74788111  0.42450270  0.83043628     1.05600
C2438       C  0.75078940  0.07950283  0.82724241     1.05200
H2439       H  0.79362337  0.45703789  0.79524300     0.31800
O2440       O  0.78101490  0.46975347  0.78232737    -1.30700
H2441       H  0.70508178  0.04410009  0.79410652     0.31900
O2442       O  0.71784701  0.03139861  0.78131163    -1.32100
O2443       O  0.70033868  0.16292216  0.99724384    -0.87500
O2444       O  0.70198616  0.33706054  0.00064398    -0.87700
O2445       O  0.66283492  0.25262242  0.54905549    -0.89400
O2446       O  0.66471704  0.24996217  0.94933326    -0.88100
O2447       O  0.70171593  0.24805657  0.91242184    -0.87700
O2448       O  0.69948901  0.25131637  0.58624015    -0.89100
O2449       O  0.66468639  0.30054836  0.99917888    -0.87600
O2450       O  0.66358421  0.20036822  0.99983753    -0.87200
Zr2451     Zr  0.68897841  0.25031572  0.99966253     2.84300
O2452       O  0.72016872  0.28143513  0.96916380    -1.09100
O2453       O  0.71827616  0.21960967  0.53063414    -1.09900
C2454       C  0.67235668  0.17207689  0.99850909     1.05600
C2455       C  0.67378775  0.32874474  0.99990496     1.05500
C2456       C  0.67152124  0.25256419  0.57743649     1.08500
C2457       C  0.67351657  0.24812080  0.92117013     1.06300
H2458       H  0.70559995  0.29440054  0.54223380     0.31800
O2459       O  0.71835681  0.28127586  0.52988713    -1.30100
H2460       H  0.70735691  0.20635439  0.95570253     0.31500
O2461       O  0.71977919  0.21912867  0.96876803    -1.31800
O2462       O  0.80189109  0.33565110  0.00324317    -0.87500
O2463       O  0.80031394  0.16291498  0.99989508    -0.89000
O2464       O  0.74826367  0.30097988  0.58663812    -0.87600
O2465       O  0.74983611  0.30033056  0.91402256    -0.87700
O2466       O  0.75487859  0.20081534  0.91336469    -0.87400
O2467       O  0.74675943  0.20063155  0.58709346    -0.87200
O2468       O  0.83664856  0.25241045  0.55085924    -0.87500
O2469       O  0.83681081  0.24775036  0.95208922    -0.87000
O2470       O  0.79869614  0.25434649  0.58663582    -0.88100
O2471       O  0.80089073  0.25024178  0.91434816    -0.87200
O2472       O  0.74969397  0.33760379  0.54906274    -0.87600
O2473       O  0.74510511  0.16298930  0.55034719    -0.87400
O2474       O  0.75316296  0.16328496  0.94995847    -0.87000
O2475       O  0.75182707  0.33745359  0.95097027    -0.87400
O2476       O  0.83877337  0.29856097  0.00359839    -0.87700
O2477       O  0.83752753  0.19984162  0.99996633    -0.89000
Zr2478     Zr  0.75148643  0.31164301  0.00037489     2.83100
Zr2479     Zr  0.75022315  0.18792518  0.99976713     2.83500
Zr2480     Zr  0.74896390  0.25073527  0.56158066     2.84100
Zr2481     Zr  0.75107242  0.25032122  0.93867964     2.83400
Zr2482     Zr  0.81201352  0.24935244  0.00145940     2.84200
O2483       O  0.78131314  0.21913224  0.96980589    -1.09600
O2484       O  0.78006665  0.28134880  0.53089753    -1.09100
C2485       C  0.83001886  0.32687091  0.00396185     1.05500
C2486       C  0.82849577  0.17167609  0.99978389     1.08200
C2487       C  0.74931129  0.32916779  0.57746496     1.05700
C2488       C  0.75074396  0.32857475  0.92276085     1.06100
C2489       C  0.75508825  0.17250208  0.92199176     1.05700
C2490       C  0.74478185  0.17228388  0.57837940     1.05200
C2491       C  0.82707785  0.25426225  0.57880530     1.05600
C2492       C  0.82873913  0.24879629  0.92382616     1.05200
H2493       H  0.79259412  0.20619073  0.54522937     0.31800
O2494       O  0.78018694  0.21879109  0.53200688    -1.30700
H2495       H  0.79552628  0.29367358  0.95718859     0.31900
O2496       O  0.78251305  0.28091075  0.96964446    -1.32100
C2497       C  0.72553861  0.09932464  0.62234806    -0.10200
C2498       C  0.74535499  0.10188544  0.64746891     0.06000
C2499       C  0.76414094  0.12800639  0.64989181    -0.04000
C2500       C  0.76289851  0.15088073  0.62758229    -0.08400
C2501       C  0.74330073  0.14840467  0.60240639     0.05100
C2502       C  0.72410615  0.12244643  0.60009100    -0.03400
Br2503     Br  0.69394014  0.11835988  0.56853050    -0.03100
H2504       H  0.71060302  0.07963056  0.62041337     0.09000
H2505       H  0.77812901  0.17029556  0.62941563     0.07000
Br2506     Br  0.79381546  0.13264303  0.68183822    -0.03600
C2507       C  0.76611312  0.40336024  0.62130008    -0.10200
C2508       C  0.75032439  0.39849565  0.64885751     0.06000
C2509       C  0.73427042  0.37068669  0.65267113    -0.04000
C2510       C  0.73423937  0.34873374  0.62918698    -0.08400
C2511       C  0.74995908  0.35352805  0.60154837     0.05100
C2512       C  0.76633673  0.38123113  0.59796949    -0.03400
Br2513     Br  0.79145307  0.38954609  0.56296561    -0.03100
H2514       H  0.77897344  0.42431726  0.61809768     0.09000
H2515       H  0.72135490  0.32792606  0.63238477     0.07000
Br2516     Br  0.71035542  0.36195129  0.68852871    -0.03600
C2517       C  0.75663798  0.37065069  0.84644391    -0.10200
C2518       C  0.74735216  0.40039332  0.85451881     0.06000
C2519       C  0.73893497  0.40612006  0.88533333    -0.04000
C2520       C  0.74032016  0.38243777  0.90687754    -0.08400
C2521       C  0.74996803  0.35276049  0.89878164     0.05100
C2522       C  0.75832121  0.34711481  0.86799747    -0.03400
Br2523     Br  0.77439879  0.30875513  0.85345195    -0.03100
H2524       H  0.76360371  0.36568874  0.82317653     0.08600
H2525       H  0.73347175  0.38733306  0.93019783     0.07000
Br2526     Br  0.72421801  0.44499203  0.90004481    -0.03600
C2527       C  0.74310916  0.15579798  0.86923411    -0.10200
C2528       C  0.75622959  0.14890777  0.89766154     0.06000
C2529       C  0.76878479  0.11946653  0.90228972    -0.04000
C2530       C  0.76656083  0.09732162  0.87916277    -0.08400
C2531       C  0.75258741  0.10395763  0.85091898     0.05100
C2532       C  0.74116938  0.13390386  0.84602317    -0.03400
Br2533     Br  0.72088004  0.14671903  0.80922421    -0.03100
H2534       H  0.73335973  0.17825495  0.86522911     0.09000
H2535       H  0.77632229  0.07487396  0.88316972     0.07000
Br2536     Br  0.79096560  0.10856727  0.93866774    -0.03600
C2537       C  0.87013899  0.15190116  0.76902619    -0.10200
C2538       C  0.89592492  0.14844877  0.75031657     0.06000
C2539       C  0.89775508  0.12260583  0.73100364    -0.04000
C2540       C  0.87501084  0.10009505  0.73190689    -0.08400
C2541       C  0.84934100  0.10336923  0.75080216     0.05100
C2542       C  0.84677603  0.12997806  0.76914028    -0.03400
Br2543     Br  0.81267076  0.13731639  0.79569610    -0.03100
H2544       H  0.86829724  0.17161792  0.78389609     0.09000
H2545       H  0.87685852  0.08041596  0.71688314     0.07000
Br2546     Br  0.92899432  0.11859771  0.70054061    -0.03600
C2547       C  0.86766620  0.34414113  0.74709048    -0.10200
C2548       C  0.89789615  0.35229371  0.75414655     0.06000
C2549       C  0.90400887  0.38335967  0.76150607    -0.04000
C2550       C  0.88054295  0.40505811  0.76095385    -0.08400
C2551       C  0.85048839  0.39702143  0.75330088     0.05100
C2552       C  0.84415536  0.36583067  0.74664573    -0.03400
Br2553     Br  0.80447273  0.35058865  0.73561093    -0.03100
H2554       H  0.86212585  0.32062398  0.74137303     0.09000
H2555       H  0.88600183  0.42856808  0.76679192     0.07000
Br2556     Br  0.94332195  0.39858803  0.77337841    -0.03600
C2557       C  0.59452660  0.11914614  0.76266608    -0.10200
C2558       C  0.59946745  0.14653051  0.74648884     0.06000
C2559       C  0.62766555  0.15060449  0.73134699    -0.04000
C2560       C  0.65008504  0.12783096  0.73295834    -0.08400
C2561       C  0.64532184  0.10065250  0.74946487     0.05100
C2562       C  0.61714448  0.09655795  0.76463522    -0.03400
Br2563     Br  0.60899277  0.06217725  0.79083499    -0.03100
H2564       H  0.57333818  0.11575552  0.77491719     0.09000
H2565       H  0.67134749  0.13129696  0.72086404     0.07000
Br2566     Br  0.63687731  0.18601131  0.70692221    -0.03600
C2567       C  0.62897908  0.34733095  0.76310328    -0.10200
C2568       C  0.60122158  0.35298983  0.74836809     0.06000
C2569       C  0.59703305  0.38181639  0.73404943    -0.04000
C2570       C  0.62018905  0.40402300  0.73521144    -0.08400
C2571       C  0.64795815  0.39830968  0.75023348     0.05100
C2572       C  0.65205362  0.36941663  0.76437000    -0.03400
Br2573     Br  0.68745445  0.35880164  0.78787299    -0.03100
H2574       H  0.63250793  0.32572998  0.77453962     0.09000
H2575       H  0.61659561  0.42577260  0.72381715     0.07000
Br2576     Br  0.56119634  0.39194566  0.71093315    -0.03600
C2577       C  0.87966850  0.26794192  0.59704676    -0.10200
C2578       C  0.85042564  0.25641445  0.60373084     0.06000
C2579       C  0.84433904  0.24713738  0.63419462    -0.04000
C2580       C  0.86740619  0.24801017  0.65632950    -0.08400
C2581       C  0.89699393  0.25816849  0.64937206     0.05100
C2582       C  0.90263633  0.26932460  0.61944047    -0.03400
Br2583     Br  0.94044152  0.28834307  0.60777861    -0.03100
H2584       H  0.88470637  0.27628591  0.57425632     0.09000
H2585       H  0.86221691  0.23973979  0.67910354     0.07000
Br2586     Br  0.80570699  0.23122028  0.64748844    -0.03600
C2587       C  0.63061841  0.25727866  0.65482679    -0.10200
C2588       C  0.60047042  0.24996639  0.64667532     0.06000
C2589       C  0.59401417  0.24483551  0.61525239    -0.04000
C2590       C  0.61724995  0.24697006  0.59344236    -0.08400
C2591       C  0.64751749  0.25328754  0.60169703     0.05100
C2592       C  0.65388690  0.25915560  0.63300000    -0.03400
Br2593     Br  0.69309053  0.27150231  0.64827198    -0.03100
H2594       H  0.63627118  0.26209226  0.67848015     0.09000
H2595       H  0.61147926  0.24298491  0.56968400     0.07000
Br2596     Br  0.55458487  0.23379103  0.59951159    -0.03600
C2597       C  0.59728204  0.23537024  0.88043999    -0.10200
C2598       C  0.60343905  0.24655114  0.85089759     0.06000
C2599       C  0.63363011  0.25616356  0.84430227    -0.04000
C2600       C  0.65588498  0.25621484  0.86730455    -0.08400
C2601       C  0.64939139  0.24612914  0.89710570     0.05100
C2602       C  0.61988712  0.23443427  0.90313098    -0.03400
Br2603     Br  0.60934234  0.21440675  0.94085717    -0.03100
H2604       H  0.57484356  0.22657137  0.88582973     0.09000
H2605       H  0.67844755  0.26463093  0.86181684     0.07000
Br2606     Br  0.64672339  0.27024617  0.80480310    -0.03600
C2607       C  0.90594601  0.25278654  0.88389187    -0.10200
C2608       C  0.89773458  0.24701917  0.85331312     0.06000
C2609       C  0.86662942  0.24143447  0.84657389    -0.04000
C2610       C  0.84499902  0.24219341  0.86990143    -0.08400
C2611       C  0.85316027  0.24818995  0.90036998     0.05100
C2612       C  0.88428648  0.25333480  0.90730923    -0.03400
Br2613     Br  0.89963325  0.26209022  0.94769824    -0.03100
H2614       H  0.92948730  0.25727911  0.88978865     0.09000
H2615       H  0.82145769  0.23768124  0.86398698     0.07000
Br2616     Br  0.85103412  0.23153901  0.80666944    -0.03600
C2617       C  0.87294861  0.40203515  0.99207363    -0.10200
C2618       C  0.89655026  0.39877408  0.50448078     0.06000
C2619       C  0.89955833  0.37125504  0.52126466    -0.04000
C2620       C  0.87678648  0.34877941  0.51968927    -0.08400
C2621       C  0.85067790  0.35292542  0.50158631     0.05100
C2622       C  0.84988032  0.37999073  0.99095617    -0.03400
Br2623     Br  0.81431863  0.39053522  0.96756710    -0.03100
H2624       H  0.86933149  0.42355358  0.98045355     0.09000
H2625       H  0.87938345  0.32800896  0.53301247     0.07000
Br2626     Br  0.93344999  0.36343675  0.54794469    -0.03600
C2627       C  0.87304264  0.09910309  0.51727702    -0.10200
C2628       C  0.89818580  0.10275775  0.49769553     0.06000
C2629       C  0.90154666  0.12963045  0.97967521    -0.04000
C2630       C  0.87828244  0.15167541  0.98063506    -0.08400
C2631       C  0.85122411  0.14751405  0.50016675     0.05100
C2632       C  0.84975235  0.12104270  0.51865760    -0.03400
Br2633     Br  0.81754595  0.11440728  0.54766230    -0.03100
H2634       H  0.87175007  0.07924232  0.53208959     0.09000
H2635       H  0.88003352  0.17173646  0.96613360     0.07000
Br2636     Br  0.93408989  0.13565983  0.95083568    -0.03600
C2637       C  0.61820060  0.34394563  0.50165229    -0.10200
C2638       C  0.64847638  0.35260334  0.49573341     0.06000
C2639       C  0.65628580  0.38490664  0.99980660    -0.04000
C2640       C  0.63251130  0.40623925  0.00032249    -0.08400
C2641       C  0.60123710  0.39710263  0.49935195     0.05100
C2642       C  0.59470484  0.36547250  0.50322105    -0.03400
Br2643     Br  0.55475628  0.34893281  0.51095211    -0.03100
H2644       H  0.61255812  0.32007396  0.50542943     0.09000
H2645       H  0.63839260  0.43034897  0.00031219     0.07000
Br2646     Br  0.69662441  0.40202661  0.99779173    -0.03600
C2647       C  0.64695327  0.12551232  0.47877368    -0.10200
C2648       C  0.64660922  0.14808746  0.50170698     0.06000
C2649       C  0.62728866  0.14667724  0.02326446    -0.04000
C2650       C  0.60462881  0.12406437  0.02338248    -0.08400
C2651       C  0.60131465  0.10171229  0.49984373     0.05100
C2652       C  0.62437414  0.10279172  0.47742083    -0.03400
Br2653     Br  0.62439583  0.07562754  0.44289570    -0.03100
H2654       H  0.66438850  0.12610941  0.46123923     0.09000
H2655       H  0.58859751  0.12314921  0.04221505     0.07000
Br2656     Br  0.63044396  0.17307953  0.05810958    -0.03600
C2657       C  0.90652374  0.51167031  0.86818177    -0.10200
C2658       C  0.89755011  0.00484838  0.89958497     0.06000
C2659       C  0.86639077  0.99923245  0.90653457    -0.04000
C2660       C  0.84450181  0.99899428  0.88310578    -0.08400
C2661       C  0.85211552  0.00546969  0.85248656     0.05100
C2662       C  0.88432499  0.51324630  0.84514313    -0.03400
Br2663     Br  0.89710476  0.53043038  0.80667426    -0.03100
H2664       H  0.92939873  0.51939264  0.86299169     0.09000
H2665       H  0.82116947  0.99360924  0.88908486     0.07000
Br2666     Br  0.85104438  0.99175092  0.94716629    -0.03600
C2667       C  0.59544041  0.99028383  0.86910882    -0.10200
C2668       C  0.60374327  0.99439528  0.89991926     0.06000
C2669       C  0.63433607  0.50402914  0.90687166    -0.04000
C2670       C  0.65641247  0.50355863  0.88377888    -0.08400
C2671       C  0.64818515  0.99424525  0.85249324     0.05100
C2672       C  0.61719303  0.98831505  0.84585207    -0.03400
Br2673     Br  0.60281968  0.97387336  0.80676872    -0.03100
H2674       H  0.57178371  0.98777374  0.86292376     0.09000
H2675       H  0.67945713  0.51023200  0.88961187     0.07000
Br2676     Br  0.64843568  0.51649574  0.94677750    -0.03600
C2677       C  0.65588736  0.49866760  0.61965963    -0.10200
C2678       C  0.64607218  0.00192016  0.64922969     0.06000
C2679       C  0.61538999  0.99373339  0.65532840    -0.04000
C2680       C  0.59387843  0.99425962  0.63175763    -0.08400
C2681       C  0.60152307  0.00380853  0.60202908     0.05100
C2682       C  0.63450500  0.49807081  0.59599350    -0.03400
Br2683     Br  0.65103760  0.49089869  0.55578283    -0.03100
H2684       H  0.67959261  0.49508671  0.61382289     0.09000
H2685       H  0.57086165  0.98691433  0.63685242     0.07000
Br2686     Br  0.60034428  0.98134326  0.69481099    -0.03600
C2687       C  0.84391519  0.98897727  0.61760769    -0.10200
C2688       C  0.85157393  0.99658686  0.64799411     0.06000
C2689       C  0.88364944  0.50946861  0.65615973    -0.04000
C2690       C  0.90536071  0.50954241  0.63272299    -0.08400
C2691       C  0.89656838  0.99642515  0.60066429     0.05100
C2692       C  0.86584947  0.98845877  0.59419318    -0.03400
Br2693     Br  0.85190465  0.97499630  0.55460500    -0.03100
H2694       H  0.82065047  0.98296134  0.61193037     0.09000
H2695       H  0.92839621  0.51654848  0.63821107     0.07000
Br2696     Br  0.89837539  0.52109901  0.69597856    -0.03600
C2697       C  0.52059015  0.15128345  0.87697344    -0.10200
C2698       C  0.50088856  0.14747862  0.85187847     0.06000
C2699       C  0.98523662  0.11801326  0.84875165    -0.04000
C2700       C  0.98683688  0.09622016  0.87198737    -0.08400
C2701       C  0.50440580  0.10237178  0.89802941     0.05100
C2702       C  0.52267386  0.12893967  0.89984879    -0.03400
Br2703     Br  0.55230190  0.13504035  0.93164659    -0.03100
H2704       H  0.53489730  0.17147945  0.87849245     0.09000
H2705       H  0.97166133  0.07663102  0.87116314     0.07000
Br2706     Br  0.95531079  0.11154246  0.81737176    -0.03600
C2707       C  0.52068457  0.37224699  0.90100888    -0.10200
C2708       C  0.49950770  0.39632883  0.89937492     0.06000
C2709       C  0.98677484  0.40051487  0.87179721    -0.04000
C2710       C  0.98711640  0.37734239  0.84972922    -0.08400
C2711       C  0.50161684  0.35108671  0.85318814     0.05100
C2712       C  0.52183870  0.34966619  0.87821841    -0.03400
Br2713     Br  0.55232544  0.31822803  0.88159019    -0.03100
H2714       H  0.53676875  0.37131129  0.91979375     0.09000
H2715       H  0.97525552  0.38110372  0.82840954     0.07000
Br2716     Br  0.96401389  0.43691641  0.86208438    -0.03600
C2717       C  0.52049907  0.37404942  0.60042267    -0.10200
C2718       C  0.50259876  0.40035124  0.60480352     0.06000
C2719       C  0.97631836  0.39852342  0.62852228    -0.04000
C2720       C  0.97673846  0.37562944  0.65105164    -0.08400
C2721       C  0.50373351  0.35324358  0.64927107     0.05100
C2722       C  0.52161754  0.35087051  0.62250046    -0.03400
Br2723     Br  0.55002936  0.31815795  0.61582107    -0.03100
H2724       H  0.53426207  0.37181211  0.57995929     0.09000
H2725       H  0.95850978  0.37466464  0.66774168     0.07000
Br2726     Br  0.94271479  0.42665726  0.62828592    -0.03600
C2727       C  0.52069680  0.12578589  0.64879520    -0.10200
C2728       C  0.49765530  0.14806744  0.64830038     0.06000
C2729       C  0.97874704  0.14917155  0.62374766    -0.04000
C2730       C  0.97956785  0.12614179  0.60135114    -0.08400
C2731       C  0.50000062  0.10182067  0.60290642     0.05100
C2732       C  0.52218676  0.10295163  0.62626235    -0.03400
Br2733     Br  0.55621288  0.07537048  0.62727586    -0.03100
H2734       H  0.53806373  0.12659944  0.66640608     0.09000
H2735       H  0.96251834  0.12611602  0.58342791     0.07000
Br2736     Br  0.94671708  0.17918246  0.62201878    -0.03600
O2737       O  0.50151972  0.55003126  0.08716530    -0.87500
O2738       O  0.50087373  0.54932545  0.41331440    -0.87700
O2739       O  0.54919787  0.58759205  0.99950961    -0.89400
O2740       O  0.94972031  0.58700287  0.99738913    -0.88100
O2741       O  0.91329736  0.54931926  0.99841194    -0.87700
O2742       O  0.58651053  0.55062530  0.99823842    -0.89100
O2743       O  0.49933613  0.58652908  0.45040593    -0.87600
O2744       O  0.49963084  0.58702187  0.04974354    -0.87200
Zr2745     Zr  0.49979431  0.56175239  0.99980948     2.84300
O2746       O  0.96993120  0.52987093  0.46923078    -1.09100
O2747       O  0.53077054  0.53131936  0.03117894    -1.09900
C2748       C  0.50085297  0.57812988  0.07792917     1.05600
C2749       C  0.50003581  0.57756523  0.42228142     1.05500
C2750       C  0.57729658  0.57884121  0.99841862     1.08500
C2751       C  0.92167882  0.57777618  0.99739630     1.06300
H2752       H  0.54504106  0.54389998  0.45671199     0.31800
O2753       O  0.53222088  0.53134974  0.46959668    -1.30100
H2754       H  0.95638042  0.54443399  0.04308139     0.31500
O2755       O  0.96943299  0.53157064  0.03073523    -1.31800
O2756       O  0.49916276  0.94913658  0.41301949    -0.87500
O2757       O  0.49779586  0.95085412  0.08738737    -0.89000
O2758       O  0.58822701  0.49639192  0.45225160    -0.87600
O2759       O  0.91479007  0.49947119  0.45065033    -0.87700
O2760       O  0.91448336  0.50168726  0.04903721    -0.87400
O2761       O  0.58743116  0.50261493  0.05022177    -0.87200
O2762       O  0.54951859  0.91374943  0.99962517    -0.87500
O2763       O  0.95113778  0.91321758  0.00174032    -0.87000
O2764       O  0.58666878  0.95068599  0.00152312    -0.88100
O2765       O  0.91444986  0.95067016  0.00129467    -0.87200
O2766       O  0.55217040  0.49822496  0.41462315    -0.87600
O2767       O  0.55053015  0.50075979  0.08741856    -0.87400
O2768       O  0.95055556  0.50088398  0.08680599    -0.87000
O2769       O  0.95156052  0.49830747  0.41366444    -0.87400
O2770       O  0.49836859  0.91211331  0.45025183    -0.87700
O2771       O  0.49882929  0.91390861  0.04988907    -0.89000
Zr2772     Zr  0.50169076  0.49973390  0.43899923     2.83100
Zr2773     Zr  0.50037523  0.50014115  0.06224064     2.83500
Zr2774     Zr  0.56171173  0.50011888  0.00075042     2.84100
Zr2775     Zr  0.93968053  0.49973076  0.99972999     2.83400
Zr2776     Zr  0.49985421  0.93909942  0.00007577     2.84200
O2777       O  0.97023976  0.97002710  0.03174542    -1.09600
O2778       O  0.53001930  0.96807436  0.46955224    -1.09100
C2779       C  0.49858582  0.92090928  0.42194214     1.05500
C2780       C  0.49773056  0.92260899  0.07816606     1.08200
C2781       C  0.58017411  0.49660019  0.42392119     1.05700
C2782       C  0.92340262  0.49878946  0.42244607     1.06100
C2783       C  0.92263314  0.50110333  0.07734395     1.05700
C2784       C  0.57863190  0.50223239  0.07843338     1.05200
C2785       C  0.57763905  0.92252214  0.00038144     1.05600
C2786       C  0.92309986  0.92225408  0.00192239     1.05200
H2787       H  0.54306333  0.95670929  0.04456848     0.31800
O2788       O  0.53057535  0.96964214  0.03171924    -1.30700
H2789       H  0.95616043  0.95619200  0.45597018     0.31900
O2790       O  0.96901627  0.96891388  0.46870493    -1.32100
O2791       O  0.49881246  0.69947856  0.16218276    -0.87500
O2792       O  0.50131666  0.69830658  0.33642930    -0.87700
O2793       O  0.54985530  0.66058389  0.24922367    -0.89400
O2794       O  0.95108350  0.66175731  0.24895582    -0.88100
O2795       O  0.91461248  0.69931330  0.24867594    -0.87700
O2796       O  0.58685316  0.69770368  0.24798269    -0.89100
O2797       O  0.49997572  0.66136812  0.29910322    -0.87600
O2798       O  0.50110023  0.66197173  0.19903917    -0.87200
Zr2799     Zr  0.50053180  0.68647899  0.24911579     2.84300
O2800       O  0.97072604  0.71758953  0.28024074    -1.09100
O2801       O  0.53065794  0.71739597  0.21754924    -1.09900
C2802       C  0.49980457  0.67127877  0.17103004     1.05600
C2803       C  0.50016591  0.67013343  0.32737254     1.05500
C2804       C  0.57794780  0.66944035  0.24851129     1.08500
C2805       C  0.92311530  0.67090585  0.24859958     1.06300
H2806       H  0.54497308  0.70387091  0.29224229     0.31800
O2807       O  0.53215013  0.71680201  0.27976295    -1.30100
H2808       H  0.95645944  0.70618177  0.20584688     0.31500
O2809       O  0.96963925  0.71845964  0.21862865    -1.31800
O2810       O  0.50284321  0.79731899  0.33702869    -0.87500
O2811       O  0.50010623  0.79831365  0.16155670    -0.89000
O2812       O  0.58930487  0.74787516  0.29652876    -0.87600
O2813       O  0.91599238  0.74558653  0.30026619    -0.87700
O2814       O  0.91344293  0.75266913  0.20110444    -0.87400
O2815       O  0.58561813  0.74640414  0.19815944    -0.87200
O2816       O  0.55066030  0.83516734  0.24971563    -0.87500
O2817       O  0.95192380  0.83635861  0.25176167    -0.87000
O2818       O  0.58735211  0.79789958  0.24774263    -0.88100
O2819       O  0.91468463  0.79966476  0.25276227    -0.87200
O2820       O  0.55313629  0.74690951  0.33416793    -0.87600
O2821       O  0.54814864  0.74846000  0.16193500    -0.87400
O2822       O  0.94991478  0.75234868  0.16387658    -0.87000
O2823       O  0.95267940  0.74643189  0.33734430    -0.87400
O2824       O  0.50218358  0.83477308  0.30029969    -0.87700
O2825       O  0.49977086  0.83538586  0.19886236    -0.89000
Zr2826     Zr  0.50208772  0.74794879  0.31111501     2.83100
Zr2827     Zr  0.49935342  0.74900946  0.18774228     2.83500
Zr2828     Zr  0.56203497  0.74795356  0.24821919     2.84100
Zr2829     Zr  0.93970577  0.74935901  0.25030293     2.83400
Zr2830     Zr  0.50100424  0.81048135  0.24958541     2.84200
O2831       O  0.96984003  0.78077135  0.21935303    -1.09600
O2832       O  0.53222727  0.77916965  0.27985480    -1.09100
C2833       C  0.50275665  0.82562876  0.32851889     1.05500
C2834       C  0.50005602  0.82654497  0.17047878     1.08200
C2835       C  0.58118133  0.74699380  0.32484324     1.05700
C2836       C  0.92451069  0.74562979  0.32845519     1.06100
C2837       C  0.92193066  0.75337364  0.17275605     1.05700
C2838       C  0.57624886  0.74704175  0.17018058     1.05200
C2839       C  0.57865008  0.82623412  0.24851185     1.05600
C2840       C  0.92371191  0.82797257  0.25268845     1.05200
H2841       H  0.54372085  0.79229778  0.20503851     0.31800
O2842       O  0.53116282  0.77958672  0.21798607    -1.30700
H2843       H  0.95874088  0.79196885  0.29495728     0.31900
O2844       O  0.97111243  0.77939929  0.28165616    -1.32100
O2845       O  0.83632088  0.00183703  0.20156879    -0.87500
O2846       O  0.66294681  0.99905017  0.20122339    -0.87700
O2847       O  0.75084032  0.95150546  0.16210022    -0.89400
O2848       O  0.75020055  0.55151322  0.16432949    -0.88100
O2849       O  0.75003595  0.58812437  0.20209626    -0.87700
O2850       O  0.75091114  0.91411205  0.19907035    -0.89100
O2851       O  0.69949306  0.99945474  0.16389732    -0.87600
O2852       O  0.80001870  0.00165662  0.16408722    -0.87200
Zr2853     Zr  0.74962864  0.00038772  0.18854989     2.84300
O2854       O  0.71922466  0.53065930  0.21948265    -1.09100
O2855       O  0.78105959  0.96977841  0.21921079    -1.09900
C2856       C  0.82809860  0.00206175  0.17329413     1.05600
C2857       C  0.67141572  0.99898289  0.17298998     1.05500
C2858       C  0.75069378  0.92330793  0.17092987     1.08500
C2859       C  0.75040001  0.57964364  0.17377901     1.06300
H2860       H  0.70673288  0.95550860  0.20633497     0.31800
O2861       O  0.71928477  0.96845918  0.21911635    -1.30100
H2862       H  0.79351611  0.54501409  0.20668603     0.31500
O2863       O  0.78091430  0.53186355  0.21917247    -1.31800
O2864       O  0.66300976  0.99656107  0.29994980    -0.87500
O2865       O  0.83596210  0.00238715  0.30040709    -0.89000
O2866       O  0.70166015  0.91167015  0.25039076    -0.87600
O2867       O  0.69885652  0.58479081  0.25163688    -0.87700
O2868       O  0.79857447  0.58784925  0.25182777    -0.87400
O2869       O  0.80072282  0.91364684  0.24970129    -0.87200
O2870       O  0.75033315  0.94878013  0.33669595    -0.87500
O2871       O  0.75215305  0.54928865  0.33808801    -0.87000
O2872       O  0.75167578  0.91191300  0.29906855    -0.88100
O2873       O  0.75088555  0.58636480  0.30088580    -0.87200
O2874       O  0.66408685  0.94800766  0.25126428    -0.87600
O2875       O  0.83721475  0.95108426  0.24988260    -0.87400
O2876       O  0.83578733  0.55113470  0.25106528    -0.87000
O2877       O  0.66257069  0.54694035  0.25141733    -0.87400
O2878       O  0.69951342  0.99620058  0.33718872    -0.87700
O2879       O  0.79946406  0.00168148  0.33772921    -0.89000
Zr2880     Zr  0.68817785  0.99858735  0.25063139     2.83100
Zr2881     Zr  0.81090834  0.00110068  0.25077144     2.83500
Zr2882     Zr  0.75080099  0.93803912  0.24976758     2.84100
Zr2883     Zr  0.74958767  0.56149317  0.25103520     2.83400
Zr2884     Zr  0.74954367  0.99935419  0.31250512     2.84200
O2885       O  0.78129470  0.53091440  0.28128485    -1.09600
O2886       O  0.71954272  0.96800558  0.28117334    -1.09100
C2887       C  0.67142422  0.99534873  0.32813342     1.05500
C2888       C  0.82755457  0.00287827  0.32866519     1.08200
C2889       C  0.67339557  0.91984989  0.25119438     1.05700
C2890       C  0.67092947  0.57526347  0.25189394     1.06100
C2891       C  0.82672595  0.57933639  0.25179277     1.05700
C2892       C  0.82874475  0.92255805  0.24952541     1.05200
C2893       C  0.75098373  0.92062990  0.32732472     1.05600
C2894       C  0.75157556  0.57755342  0.32906435     1.05200
H2895       H  0.79400503  0.95657880  0.29405225     0.31800
O2896       O  0.78097977  0.96914502  0.28141279    -1.30700
H2897       H  0.70671971  0.54205906  0.29494018     0.31900
O2898       O  0.71959116  0.52972021  0.28190580    -1.32100
O2899       O  0.70112286  0.66284090  0.49883836    -0.87500
O2900       O  0.70091090  0.83703061  0.49786940    -0.87700
O2901       O  0.66194526  0.75084829  0.04951386    -0.89400
O2902       O  0.66507441  0.74906252  0.44886335    -0.88100
O2903       O  0.70219642  0.74945980  0.41210841    -0.87700
O2904       O  0.69884394  0.74912691  0.08634032    -0.89100
O2905       O  0.66414634  0.79986167  0.49758888    -0.87600
O2906       O  0.66388149  0.69981833  0.50051412    -0.87200
Zr2907     Zr  0.68902819  0.74984880  0.49913893     2.84300
O2908       O  0.72017651  0.78054566  0.46807121    -1.09100
O2909       O  0.71803858  0.71969398  0.03157743    -1.09900
C2910       C  0.67299520  0.67163689  0.49983942     1.05600
C2911       C  0.67285819  0.82819550  0.49726371     1.05500
C2912       C  0.67079991  0.74988893  0.07767127     1.08500
C2913       C  0.67394969  0.74925068  0.42071167     1.06300
H2914       H  0.70561950  0.79479587  0.04442909     0.31800
O2915       O  0.71827434  0.78202179  0.03160839    -1.30100
H2916       H  0.70780097  0.70588183  0.45563565     0.31500
O2917       O  0.72026444  0.71886000  0.46846279    -1.31800
O2918       O  0.79996410  0.83750113  0.50075346    -0.87500
O2919       O  0.80069098  0.66337913  0.50166454    -0.89000
O2920       O  0.74930585  0.80123455  0.08718310    -0.87600
O2921       O  0.75302904  0.79881775  0.41198410    -0.87700
O2922       O  0.75187284  0.69998163  0.41271061    -0.87400
O2923       O  0.74915867  0.70098895  0.08800657    -0.87200
O2924       O  0.83519098  0.75175467  0.05188500    -0.87500
O2925       O  0.83847562  0.74838288  0.45177984    -0.87000
O2926       O  0.79781613  0.75197898  0.08822486    -0.88100
O2927       O  0.80239541  0.74656449  0.41409826    -0.87200
O2928       O  0.75072808  0.83811247  0.04976400    -0.87600
O2929       O  0.74822703  0.66365135  0.05099092    -0.87400
O2930       O  0.75250143  0.66326287  0.45024818    -0.87000
O2931       O  0.75064689  0.83643413  0.44873053    -0.87400
O2932       O  0.83734655  0.80073367  0.50153113    -0.87700
O2933       O  0.83786190  0.70042214  0.50187844    -0.89000
Zr2934     Zr  0.75050487  0.81190947  0.49900350     2.83100
Zr2935     Zr  0.75087080  0.68849136  0.49991562     2.83500
Zr2936     Zr  0.74881572  0.75078854  0.06239943     2.84100
Zr2937     Zr  0.75184333  0.74955832  0.43795678     2.83400
Zr2938     Zr  0.81244124  0.75042851  0.50106201     2.84200
O2939       O  0.78235832  0.71912928  0.46960900    -1.09600
O2940       O  0.77994434  0.78169910  0.03188094    -1.09100
C2941       C  0.82813213  0.82892085  0.50124460     1.05500
C2942       C  0.82882238  0.67216880  0.50205749     1.08200
C2943       C  0.75054303  0.82939776  0.07791753     1.05700
C2944       C  0.75211655  0.82708823  0.42067148     1.06100
C2945       C  0.75260633  0.67193723  0.42201280     1.05700
C2946       C  0.74847693  0.67268156  0.07916556     1.05200
C2947       C  0.82599629  0.75236133  0.08002882     1.05600
C2948       C  0.83042698  0.74658116  0.42343456     1.05200
H2949       H  0.79243406  0.70681472  0.04499808     0.31800
O2950       O  0.77986362  0.71951806  0.03204633    -1.30700
H2951       H  0.79529620  0.79364034  0.45626555     0.31900
O2952       O  0.78233371  0.78102253  0.46891755    -1.32100
C2953       C  0.73351859  0.59895873  0.12327006    -0.10200
C2954       C  0.75043687  0.60387489  0.15005879     0.06000
C2955       C  0.76672432  0.63164742  0.15334037    -0.04000
C2956       C  0.76553302  0.65375034  0.13013303    -0.08400
C2957       C  0.74856097  0.64878228  0.10329640     0.05100
C2958       C  0.73227231  0.62101395  0.10014779    -0.03400
Br2959     Br  0.70592383  0.61242550  0.06614022    -0.03100
H2960       H  0.72053503  0.57799973  0.12054816     0.09000
H2961       H  0.77849559  0.67472352  0.13283111     0.07000
Br2962     Br  0.79273204  0.64003512  0.18770691    -0.03600
C2963       C  0.76976585  0.90220488  0.12165707    -0.10200
C2964       C  0.75009158  0.89963819  0.14684857     0.06000
C2965       C  0.72992670  0.87456676  0.14846921    -0.04000
C2966       C  0.73097910  0.85165366  0.12615596    -0.08400
C2967       C  0.75110479  0.85374108  0.10135369     0.05100
C2968       C  0.77031969  0.87963602  0.09886656    -0.03400
Br2969     Br  0.79871981  0.88488367  0.06577750    -0.03100
H2970       H  0.78508022  0.92161771  0.11992736     0.09000
H2971       H  0.71524520  0.83258736  0.12763597     0.07000
Br2972     Br  0.69847229  0.87196592  0.17886831    -0.03600
C2973       C  0.77307612  0.87321864  0.35004772    -0.10200
C2974       C  0.75089995  0.89639977  0.35088019     0.06000
C2975       C  0.72887738  0.89605219  0.37429892    -0.04000
C2976       C  0.72984297  0.87344001  0.39689921    -0.08400
C2977       C  0.75232080  0.85067643  0.39652114     0.05100
C2978       C  0.77404531  0.85056292  0.37275397    -0.03400
Br2979     Br  0.80665594  0.82135013  0.37153050    -0.03100
H2980       H  0.79011517  0.87316428  0.33210870     0.08600
H2981       H  0.71239326  0.87306608  0.41434876     0.07000
Br2982     Br  0.69542708  0.92424104  0.37489851    -0.03600
C2983       C  0.73437510  0.65105650  0.37259380    -0.10200
C2984       C  0.75308344  0.64784765  0.39836801     0.06000
C2985       C  0.77185560  0.62179157  0.40099228    -0.04000
C2986       C  0.77069873  0.59885740  0.37852554    -0.08400
C2987       C  0.75171498  0.60188865  0.35276802     0.05100
C2988       C  0.73367373  0.62858192  0.34981384    -0.03400
Br2989     Br  0.70646565  0.63539556  0.31604352    -0.03100
H2990       H  0.71989117  0.67104418  0.37031915     0.09000
H2991       H  0.78535507  0.57900793  0.38073629     0.07000
Br2992     Br  0.80135561  0.61793579  0.43330364    -0.03600
C2993       C  0.86993244  0.65504696  0.26075999    -0.10200
C2994       C  0.89867869  0.64724303  0.24880962     0.06000
C2995       C  0.90314648  0.61707889  0.23780504    -0.04000
C2996       C  0.87955018  0.59570352  0.23970748    -0.08400
C2997       C  0.85080494  0.60340458  0.25155743     0.05100
C2998       C  0.84612088  0.63371712  0.26213012    -0.03400
Br2999     Br  0.80858864  0.64772777  0.27997297    -0.03100
H3000       H  0.86593578  0.67792752  0.26954898     0.09000
H3001       H  0.88365221  0.57287096  0.23115301     0.07000
Br3002     Br  0.93979099  0.60344489  0.21788977    -0.03600
C3003       C  0.87019033  0.84515581  0.24288417    -0.10200
C3004       C  0.89976610  0.85255114  0.25278852     0.06000
C3005       C  0.90564095  0.88338791  0.26135571    -0.04000
C3006       C  0.88248906  0.90556179  0.25959193    -0.08400
C3007       C  0.85290383  0.89815074  0.24965009     0.05100
C3008       C  0.84709811  0.86729892  0.24097056    -0.03400
Br3009     Br  0.80895241  0.85333587  0.22436128    -0.03100
H3010       H  0.86500315  0.82194381  0.23574205     0.09000
H3011       H  0.88766089  0.92879473  0.26666654     0.07000
Br3012     Br  0.94408749  0.89716107  0.27722819    -0.03600
C3013       C  0.59720079  0.61887571  0.26691585    -0.10200
C3014       C  0.60171382  0.64524436  0.24895895     0.06000
C3015       C  0.62891290  0.64787883  0.23192406    -0.04000
C3016       C  0.65111525  0.62504728  0.23376411    -0.08400
C3017       C  0.64674588  0.59885347  0.25175870     0.05100
C3018       C  0.61931684  0.59574530  0.26838700    -0.03400
Br3019     Br  0.61135203  0.56150933  0.29476889    -0.03100
H3020       H  0.57654251  0.61643847  0.28026274     0.09000
H3021       H  0.67167985  0.62740330  0.22025738     0.07000
Br3022     Br  0.63628063  0.68054846  0.20352772    -0.03600
C3023       C  0.63186792  0.84294307  0.25969086    -0.10200
C3024       C  0.60271440  0.85025998  0.24856758     0.06000
C3025       C  0.59728774  0.88050057  0.23833168    -0.04000
C3026       C  0.62028401  0.90255170  0.24059275    -0.08400
C3027       C  0.64960074  0.89531176  0.25124022     0.05100
C3028       C  0.65520052  0.86485382  0.26092643    -0.03400
Br3029     Br  0.69336294  0.85143954  0.27770687    -0.03100
H3030       H  0.63656796  0.82000018  0.26789330     0.09000
H3031       H  0.61528068  0.92552588  0.23324348     0.07000
Br3032     Br  0.56017401  0.89310296  0.21852897    -0.03600
C3033       C  0.88039661  0.75727224  0.09569096    -0.10200
C3034       C  0.84979497  0.75369964  0.10449747     0.06000
C3035       C  0.84318959  0.75180786  0.13624750    -0.04000
C3036       C  0.86693085  0.75218983  0.15767406    -0.08400
C3037       C  0.89763649  0.75484324  0.14874986     0.05100
C3038       C  0.90403787  0.75820712  0.11709854    -0.03400
Br3039     Br  0.94401412  0.76511569  0.10038450    -0.03100
H3040       H  0.88625629  0.75962089  0.07173176     0.09000
H3041       H  0.86111082  0.75010055  0.18166712     0.07000
Br3042     Br  0.80274319  0.74849954  0.15298377    -0.03600
C3043       C  0.62987796  0.75409520  0.15440027    -0.10200
C3044       C  0.59984099  0.74696352  0.14599529     0.06000
C3045       C  0.59341925  0.74061155  0.11490851    -0.04000
C3046       C  0.61669517  0.74255431  0.09321887    -0.08400
C3047       C  0.64688034  0.74940242  0.10170008     0.05100
C3048       C  0.65325992  0.75521388  0.13294261    -0.03400
Br3049     Br  0.69265366  0.76617404  0.14889013    -0.03100
H3050       H  0.63541840  0.75923747  0.17801395     0.09000
H3051       H  0.61110832  0.73787051  0.06953220     0.07000
Br3052     Br  0.55425324  0.72721324  0.10016954    -0.03600
C3053       C  0.59761331  0.75454123  0.37877282    -0.10200
C3054       C  0.60559043  0.74661310  0.34870444     0.06000
C3055       C  0.63639048  0.73884422  0.34270688    -0.04000
C3056       C  0.65798635  0.73997451  0.36639061    -0.08400
C3057       C  0.64996458  0.74868285  0.39639900     0.05100
C3058       C  0.61906196  0.75603375  0.40230659    -0.03400
Br3059     Br  0.60356296  0.76943596  0.44131070    -0.03100
H3060       H  0.57425771  0.75988229  0.38421908     0.09000
H3061       H  0.68125931  0.73355603  0.36124088     0.07000
Br3062     Br  0.65082299  0.72482274  0.30352027    -0.03600
C3063       C  0.90802085  0.73971753  0.38301017    -0.10200
C3064       C  0.90003181  0.74498008  0.35230754     0.06000
C3065       C  0.86881256  0.75004197  0.34544376    -0.04000
C3066       C  0.84699479  0.74937193  0.36877447    -0.08400
C3067       C  0.85500879  0.74497948  0.39961224     0.05100
C3068       C  0.88623969  0.73996829  0.40649120    -0.03400
Br3069     Br  0.90179297  0.73317055  0.44703424    -0.03100
H3070       H  0.93159591  0.73562219  0.38904458     0.09000
H3071       H  0.82344071  0.75328211  0.36259206     0.07000
Br3072     Br  0.85343394  0.76010968  0.30540412    -0.03600
C3073       C  0.87224105  0.90206858  0.48383853    -0.10200
C3074       C  0.89885684  0.89825842  0.00218785     0.06000
C3075       C  0.90156863  0.87062768  0.01893223    -0.04000
C3076       C  0.87793894  0.84891769  0.01835360    -0.08400
C3077       C  0.85144203  0.85357520  0.00087922     0.05100
C3078       C  0.84931874  0.87976771  0.48307339    -0.03400
Br3079     Br  0.81647608  0.88594268  0.45466148    -0.03100
H3080       H  0.87041517  0.92175335  0.46891702     0.09000
H3081       H  0.88027848  0.82822116  0.03183756     0.07000
Br3082     Br  0.93637662  0.86132146  0.04389590    -0.03600
C3083       C  0.87084857  0.59691247  0.01507370    -0.10200
C3084       C  0.89715046  0.60158682  0.99726820     0.06000
C3085       C  0.90009850  0.62831572  0.48008586    -0.04000
C3086       C  0.87754405  0.65098348  0.48194312    -0.08400
C3087       C  0.85053164  0.64706199  0.00061629     0.05100
C3088       C  0.84782843  0.61922342  0.01702872    -0.03400
Br3089     Br  0.81451698  0.61105369  0.04436874    -0.03100
H3090       H  0.86853206  0.57605701  0.02831772     0.09000
H3091       H  0.87916231  0.67084991  0.46722705     0.07000
Br3092     Br  0.93203503  0.63409477  0.45062538    -0.03600
C3093       C  0.62249249  0.84975011  0.98346947    -0.10200
C3094       C  0.64817433  0.85363756  0.00221717     0.06000
C3095       C  0.65392492  0.88298129  0.48837963    -0.04000
C3096       C  0.63023374  0.90442416  0.48967771    -0.08400
C3097       C  0.60154345  0.89853968  0.00052083     0.05100
C3098       C  0.59944146  0.87186219  0.98231854    -0.03400
Br3099     Br  0.56696117  0.86517200  0.95367485    -0.03100
H3100       H  0.62064885  0.82963539  0.96900889     0.09000
H3101       H  0.63511970  0.92783787  0.48308075     0.07000
Br3102     Br  0.69220330  0.89776864  0.47296353    -0.03600
C3103       C  0.64282939  0.63045918  0.97380152    -0.10200
C3104       C  0.64622949  0.64928666  0.99970019     0.06000
C3105       C  0.62975273  0.64351326  0.52536325    -0.04000
C3106       C  0.60692973  0.62103620  0.52464890    -0.08400
C3107       C  0.60073084  0.60323354  0.99799710     0.05100
C3108       C  0.61986497  0.60804207  0.97254870    -0.03400
Br3109     Br  0.61324779  0.58694342  0.93462402    -0.03100
H3110       H  0.65749784  0.63382089  0.95414954     0.09000
H3111       H  0.59231978  0.61804077  0.54440966     0.07000
Br3112     Br  0.63460748  0.66690861  0.56211031    -0.03600
C3113       C  0.90456597  0.01232373  0.36908495    -0.10200
C3114       C  0.89930087  0.49873832  0.39821524     0.06000
C3115       C  0.86789054  0.49455212  0.40462647    -0.04000
C3116       C  0.84658064  0.49483526  0.38087249    -0.08400
C3117       C  0.85508682  0.49959690  0.35023858     0.05100
C3118       C  0.88250529  0.01285690  0.34596382    -0.03400
Br3119     Br  0.89653664  0.02623656  0.30647865    -0.03100
H3120       H  0.92767245  0.01890221  0.36337860     0.09000
H3121       H  0.82287197  0.49131242  0.38671090     0.07000
Br3122     Br  0.85116334  0.48830195  0.44483938    -0.03600
C3123       C  0.59658605  0.48884542  0.36968188    -0.10200
C3124       C  0.60476753  0.49490690  0.40021596     0.06000
C3125       C  0.63396594  0.99431034  0.40645294    -0.04000
C3126       C  0.65554139  0.99512146  0.38295536    -0.08400
C3127       C  0.64937211  0.49388053  0.35260139     0.05100
C3128       C  0.61818239  0.48821844  0.34609059    -0.03400
Br3129     Br  0.60244219  0.47899561  0.30599430    -0.03100
H3130       H  0.57298174  0.48456884  0.36387538     0.09000
H3131       H  0.67933027  0.99697995  0.38923068     0.07000
Br3132     Br  0.65050116  0.99385875  0.44732326    -0.03600
C3133       C  0.65442380  0.00861095  0.11944720    -0.10200
C3134       C  0.64904505  0.49964641  0.14756601     0.06000
C3135       C  0.62533022  0.47784997  0.14707882    -0.04000
C3136       C  0.60208150  0.47988264  0.12517851    -0.08400
C3137       C  0.60272058  0.50244490  0.10231954     0.05100
C3138       C  0.63261311  0.00925994  0.09613753    -0.03400
Br3139     Br  0.64681329  0.02299416  0.05680413    -0.03100
H3140       H  0.67734717  0.01612666  0.11418807     0.09000
H3141       H  0.58413358  0.46282694  0.12513135     0.07000
Br3142     Br  0.62585215  0.44251627  0.17299313    -0.03600
C3143       C  0.84593598  0.49112269  0.11748453    -0.10200
C3144       C  0.85274525  0.50108645  0.14737522     0.06000
C3145       C  0.88371943  0.00866733  0.15636204    -0.04000
C3146       C  0.90557238  0.00832118  0.13298757    -0.08400
C3147       C  0.89809106  0.50090150  0.10077948     0.05100
C3148       C  0.86822634  0.49034374  0.09451178    -0.03400
Br3149     Br  0.85657113  0.47228493  0.05599690    -0.03100
H3150       H  0.82328556  0.48290146  0.11207290     0.09000
H3151       H  0.92895416  0.01356694  0.13890356     0.07000
Br3152     Br  0.89886189  0.01828745  0.19658353    -0.03600
C3153       C  0.51448572  0.65181206  0.37931649    -0.10200
C3154       C  0.49943467  0.64620266  0.35146290     0.06000
C3155       C  0.98446181  0.61633780  0.34634261    -0.04000
C3156       C  0.98499445  0.59428110  0.36963205    -0.08400
C3157       C  0.49991441  0.60157505  0.39843705     0.05100
C3158       C  0.51489831  0.62992840  0.40265165    -0.03400
Br3159     Br  0.53805662  0.63962947  0.43879651    -0.03100
H3160       H  0.52658093  0.67318614  0.38280331     0.09000
H3161       H  0.97342221  0.57263837  0.36597365     0.07000
Br3162     Br  0.96192766  0.60625124  0.31002461    -0.03600
C3163       C  0.51319836  0.86856017  0.40434807    -0.10200
C3164       C  0.49893062  0.89662963  0.39795715     0.06000
C3165       C  0.99858871  0.90317879  0.36631980    -0.04000
C3166       C  0.00033751  0.87947519  0.34489234    -0.08400
C3167       C  0.50228776  0.84961200  0.35287140     0.05100
C3168       C  0.51438762  0.84499786  0.38258415    -0.03400
Br3169     Br  0.53269831  0.80741156  0.39575850    -0.03100
H3170       H  0.52343101  0.86477005  0.42659479     0.09000
H3171       H  0.99605445  0.88503325  0.32116114     0.07000
Br3172     Br  0.98701668  0.94250769  0.35020770    -0.03600
C3173       C  0.51563650  0.87194752  0.09722863    -0.10200
C3174       C  0.49733153  0.89797654  0.10166405     0.06000
C3175       C  0.97767172  0.89757749  0.12589236    -0.04000
C3176       C  0.97900121  0.87504986  0.14874660    -0.08400
C3177       C  0.49967086  0.85070555  0.14637087     0.05100
C3178       C  0.51678980  0.84838042  0.11898673    -0.03400
Br3179     Br  0.54348924  0.81465253  0.11024021    -0.03100
H3180       H  0.52953209  0.87008219  0.07681054     0.09000
H3181       H  0.96163186  0.87464981  0.16635244     0.07000
Br3182     Br  0.94313118  0.92451931  0.12535556    -0.03600
C3183       C  0.52331070  0.62612523  0.14647726    -0.10200
C3184       C  0.49965616  0.64764703  0.14714902     0.06000
C3185       C  0.97141707  0.64551404  0.12613409    -0.04000
C3186       C  0.97242879  0.62270028  0.10352981    -0.08400
C3187       C  0.50105304  0.60208188  0.10161486     0.05100
C3188       C  0.52431142  0.60357970  0.12378715    -0.03400
Br3189     Br  0.55899941  0.57688119  0.12286855    -0.03100
H3190       H  0.54142877  0.62729520  0.16328565     0.09000
H3191       H  0.95329233  0.61988440  0.08811652     0.07000
Br3192     Br  0.93549422  0.67046662  0.12940901    -0.03600
O3193       O  0.50089333  0.55142925  0.58720063    -0.87500
O3194       O  0.50098165  0.54875323  0.91257980    -0.87700
O3195       O  0.55117195  0.58731112  0.50072430    -0.89400
O3196       O  0.95020931  0.58656714  0.49827051    -0.88100
O3197       O  0.91315949  0.54950507  0.49938501    -0.87700
O3198       O  0.58801318  0.54990337  0.49877045    -0.89100
O3199       O  0.49947806  0.58604538  0.94962104    -0.87600
O3200       O  0.49967383  0.58833468  0.54967677    -0.87200
Zr3201     Zr  0.50096847  0.56232250  0.50034261     2.84300
O3202       O  0.97031431  0.53036281  0.96860306    -1.09100
O3203       O  0.53167033  0.53182267  0.53175106    -1.09900
C3204       C  0.50028371  0.57949274  0.57785288     1.05600
C3205       C  0.50042218  0.57703552  0.92147236     1.05500
C3206       C  0.57921302  0.57818693  0.49942186     1.08500
C3207       C  0.92206621  0.57773175  0.49840658     1.06300
H3208       H  0.54380058  0.54325666  0.95633834     0.31800
O3209       O  0.53104825  0.53063496  0.96921006    -1.30100
H3210       H  0.95655904  0.54445154  0.54398271     0.31500
O3211       O  0.96939952  0.53138245  0.53162143    -1.31800
O3212       O  0.50055238  0.95077749  0.91288356    -0.87500
O3213       O  0.50272489  0.95006082  0.58697263    -0.89000
O3214       O  0.58675421  0.49730609  0.95149969    -0.87600
O3215       O  0.91537442  0.50029632  0.94976664    -0.87700
O3216       O  0.91401017  0.50080273  0.55061401    -0.87400
O3217       O  0.58735676  0.50179701  0.55043323    -0.87200
O3218       O  0.54830568  0.91176836  0.49893479    -0.87500
O3219       O  0.94997548  0.91330520  0.50181485    -0.87000
O3220       O  0.58535297  0.94865171  0.49990515    -0.88100
O3221       O  0.91339184  0.95086082  0.50054535    -0.87200
O3222       O  0.55086428  0.49786489  0.91361206    -0.87600
O3223       O  0.55068814  0.50159100  0.58752215    -0.87400
O3224       O  0.95033718  0.50096000  0.58816234    -0.87000
O3225       O  0.95203726  0.49987460  0.91256267    -0.87400
O3226       O  0.50094054  0.91384355  0.95002281    -0.87700
O3227       O  0.50113802  0.91233573  0.55047547    -0.89000
Zr3228     Zr  0.50066413  0.49907796  0.93823738     2.83100
Zr3229     Zr  0.50054041  0.50127050  0.56271094     2.83500
Zr3230     Zr  0.56222492  0.50021222  0.50111695     2.84100
Zr3231     Zr  0.93893633  0.49993735  0.50083665     2.83400
Zr3232     Zr  0.49897463  0.93733150  0.50044314     2.84200
O3233       O  0.96934522  0.96943250  0.53091076    -1.09600
O3234       O  0.53104928  0.96969418  0.96944348    -1.09100
C3235       C  0.50119113  0.92256135  0.92170531     1.05500
C3236       C  0.50233696  0.92169329  0.57857049     1.08200
C3237       C  0.57879962  0.49726986  0.92316979     1.05700
C3238       C  0.92390759  0.50022454  0.92153498     1.06100
C3239       C  0.92232415  0.50068548  0.57892847     1.05700
C3240       C  0.57884427  0.50177307  0.57860886     1.05200
C3241       C  0.57643241  0.92033619  0.49920616     1.05600
C3242       C  0.92200561  0.92254080  0.50183103     1.05200
H3243       H  0.54328724  0.95573561  0.54388533     0.31800
O3244       O  0.53028687  0.96832989  0.53121894    -1.30700
H3245       H  0.95678778  0.95659739  0.95713514     0.31900
O3246       O  0.96974802  0.96928391  0.96978784    -1.32100
O3247       O  0.49829704  0.70006626  0.66242380    -0.87500
O3248       O  0.49881641  0.69851150  0.83637100    -0.87700
O3249       O  0.54940249  0.66173924  0.74832048    -0.89400
O3250       O  0.94953960  0.66268195  0.74858802    -0.88100
O3251       O  0.91282118  0.70016541  0.75002004    -0.87700
O3252       O  0.58629403  0.69901867  0.74790818    -0.89100
O3253       O  0.49941545  0.66171465  0.79885603    -0.87600
O3254       O  0.49995876  0.66258120  0.69930745    -0.87200
Zr3255     Zr  0.49973401  0.68731618  0.74934284     2.84300
O3256       O  0.96840551  0.71807983  0.78015225    -1.09100
O3257       O  0.53058448  0.71792848  0.71831891    -1.09900
C3258       C  0.49891914  0.67189415  0.67128588     1.05600
C3259       C  0.49874790  0.67033095  0.82712297     1.05500
C3260       C  0.57747330  0.67079846  0.74760136     1.08500
C3261       C  0.92159566  0.67183576  0.74917515     1.06300
H3262       H  0.54345465  0.70483903  0.79295398     0.31800
O3263       O  0.53077386  0.71782628  0.78038196    -1.30100
H3264       H  0.95556957  0.70634616  0.70542519     0.31500
O3265       O  0.96852474  0.71872601  0.71835376    -1.31800
O3266       O  0.50113561  0.79795325  0.83737766    -0.87500
O3267       O  0.50124127  0.79871910  0.66271986    -0.89000
O3268       O  0.58669201  0.74837219  0.79852519    -0.87600
O3269       O  0.91297404  0.75225812  0.79935730    -0.87700
O3270       O  0.91375176  0.75263942  0.69986199    -0.87400
O3271       O  0.58561069  0.74749432  0.69866008    -0.87200
O3272       O  0.55062571  0.83610382  0.74914600    -0.87500
O3273       O  0.95144869  0.83770837  0.74806263    -0.87000
O3274       O  0.58724880  0.79853613  0.74915961    -0.88100
O3275       O  0.91451425  0.80070560  0.74728242    -0.87200
O3276       O  0.55035317  0.74818995  0.83597266    -0.87600
O3277       O  0.54854606  0.74760290  0.66182209    -0.87400
O3278       O  0.95064134  0.75238620  0.66300083    -0.87000
O3279       O  0.94949878  0.75031342  0.83659624    -0.87400
O3280       O  0.50113936  0.83536368  0.80071143    -0.87700
O3281       O  0.50188352  0.83579879  0.69988408    -0.89000
Zr3282     Zr  0.49991395  0.74863268  0.81160494     2.83100
Zr3283     Zr  0.49975259  0.74935953  0.68815618     2.83500
Zr3284     Zr  0.56144079  0.74879910  0.74912710     2.84100
Zr3285     Zr  0.93837036  0.75013436  0.74962982     2.83400
Zr3286     Zr  0.50096676  0.81106840  0.75009892     2.84200
O3287       O  0.96964850  0.78078813  0.71902419    -1.09600
O3288       O  0.53120608  0.77957401  0.78086006    -1.09100
C3289       C  0.50104368  0.82624308  0.82893325     1.05500
C3290       C  0.50235061  0.82687211  0.67161645     1.08200
C3291       C  0.57845771  0.74813515  0.82680804     1.05700
C3292       C  0.92137794  0.75169059  0.82767806     1.06100
C3293       C  0.92260597  0.75349158  0.67167620     1.05700
C3294       C  0.57663602  0.74697236  0.67043777     1.05200
C3295       C  0.57858042  0.82687803  0.74875401     1.05600
C3296       C  0.92332358  0.82902962  0.74693120     1.05200
H3297       H  0.54403452  0.79265925  0.70572086     0.31800
O3298       O  0.53116991  0.78015973  0.71856216    -1.30700
H3299       H  0.95675975  0.79354701  0.79343159     0.31900
O3300       O  0.96935362  0.78059160  0.78073032    -1.32100
O3301       O  0.83528571  0.99776055  0.70019214    -0.87500
O3302       O  0.66227398  0.00116868  0.70116377    -0.87700
O3303       O  0.74852924  0.95056240  0.66265335    -0.89400
O3304       O  0.75078151  0.55058235  0.66346049    -0.88100
O3305       O  0.75072738  0.58782138  0.70050042    -0.87700
O3306       O  0.74781125  0.91335360  0.69983404    -0.89100
O3307       O  0.69851473  0.99998618  0.66359226    -0.87600
O3308       O  0.79889148  0.99858316  0.66277027    -0.87200
Zr3309     Zr  0.74880324  0.99998089  0.68803224     2.84300
O3310       O  0.71956246  0.53179802  0.72005465    -1.09100
O3311       O  0.77957405  0.96926654  0.71932872    -1.09900
C3312       C  0.82699888  0.99767367  0.67186618     1.05600
C3313       C  0.67050727  0.00083510  0.67288377     1.05500
C3314       C  0.74776377  0.92240643  0.67157151     1.08500
C3315       C  0.75097293  0.57890231  0.67227025     1.06300
H3316       H  0.70544503  0.95587550  0.70652206     0.31800
O3317       O  0.71826859  0.96868991  0.71916280    -1.30100
H3318       H  0.79407900  0.54446546  0.70714832     0.31500
O3319       O  0.78120571  0.53178133  0.71983274    -1.31800
O3320       O  0.66317044  0.99795185  0.80019459    -0.87500
O3321       O  0.83612694  0.00245684  0.79994170    -0.89000
O3322       O  0.69997446  0.91222949  0.75121712    -0.87600
O3323       O  0.70066308  0.58834916  0.75006457    -0.87700
O3324       O  0.80028300  0.58757969  0.75205546    -0.87400
O3325       O  0.79823792  0.91233052  0.74907995    -0.87200
O3326       O  0.74888536  0.95240022  0.83858588    -0.87500
O3327       O  0.75150227  0.55158041  0.83797315    -0.87000
O3328       O  0.74752184  0.91509505  0.80172626    -0.88100
O3329       O  0.75071705  0.58847050  0.80052971    -0.87200
O3330       O  0.66276785  0.94910969  0.74932386    -0.87600
O3331       O  0.83504095  0.94944329  0.74987971    -0.87400
O3332       O  0.83698233  0.55006825  0.75095888    -0.87000
O3333       O  0.66418577  0.55070564  0.75118048    -0.87400
O3334       O  0.70009593  0.99812349  0.83706371    -0.87700
O3335       O  0.79963105  0.00298789  0.83727496    -0.89000
Zr3336     Zr  0.68770116  0.99947290  0.75040075     2.83100
Zr3337     Zr  0.81056891  0.00021421  0.75006336     2.83500
Zr3338     Zr  0.74915285  0.93817914  0.75046261     2.84100
Zr3339     Zr  0.75037169  0.56298993  0.75069620     2.83400
Zr3340     Zr  0.74967841  0.00108577  0.81198779     2.84200
O3341       O  0.78136100  0.53208376  0.78145110    -1.09600
O3342       O  0.71891467  0.96943580  0.78146822    -1.09100
C3343       C  0.67199075  0.99681961  0.82830514     1.05500
C3344       C  0.82775915  0.00368976  0.82829726     1.08200
C3345       C  0.67186267  0.92089584  0.75039462     1.05700
C3346       C  0.67268847  0.57902313  0.75073903     1.06100
C3347       C  0.82824837  0.57836427  0.75190824     1.05700
C3348       C  0.82630931  0.92102456  0.74913929     1.05200
C3349       C  0.74750914  0.92418288  0.83001106     1.05600
C3350       C  0.75124341  0.57970824  0.82878438     1.05200
H3351       H  0.79306505  0.95661156  0.79435817     0.31800
O3352       O  0.78029428  0.96921978  0.78149039    -1.30700
H3353       H  0.70680911  0.54520238  0.79502776     0.31900
O3354       O  0.71953778  0.53247488  0.78222159    -1.32100
O3355       O  0.69848972  0.66382507  0.99919043    -0.87500
O3356       O  0.70021721  0.83850065  0.00216556    -0.87700
O3357       O  0.66297640  0.74982075  0.54884294    -0.89400
O3358       O  0.66336229  0.75052404  0.95050854    -0.88100
O3359       O  0.70009081  0.74836275  0.91355188    -0.87700
O3360       O  0.69967441  0.74981820  0.58599375    -0.89100
O3361       O  0.66319399  0.80138410  0.00058161    -0.87600
O3362       O  0.66178281  0.70135218  0.00131723    -0.87200
Zr3363     Zr  0.68780789  0.75095112  0.00038437     2.84300
O3364       O  0.71867827  0.78177452  0.96941786    -1.09100
O3365       O  0.71955103  0.71930079  0.53047768    -1.09900
C3366       C  0.67043733  0.67303899  0.00018053     1.05600
C3367       C  0.67213656  0.82964678  0.00183738     1.05500
C3368       C  0.67163215  0.74978733  0.57719262     1.08500
C3369       C  0.67189122  0.74895716  0.92234736     1.06300
H3370       H  0.70619679  0.79431046  0.54244331     0.31800
O3371       O  0.71917011  0.78145656  0.53003801    -1.30100
H3372       H  0.70606166  0.70659490  0.95682957     0.31500
O3373       O  0.71856762  0.71947238  0.96971728    -1.31800
O3374       O  0.79906808  0.83841574  0.00023503    -0.87500
O3375       O  0.79844377  0.66271036  0.00173018    -0.89000
O3376       O  0.74804537  0.80158005  0.58594764    -0.87600
O3377       O  0.74718357  0.79989080  0.91400010    -0.87700
O3378       O  0.75275965  0.70042676  0.91443659    -0.87400
O3379       O  0.74837145  0.69991645  0.58571289    -0.87200
O3380       O  0.83592950  0.75262825  0.55165255    -0.87500
O3381       O  0.83690764  0.75195297  0.95220807    -0.87000
O3382       O  0.79837865  0.75327338  0.58789468    -0.88100
O3383       O  0.80032750  0.75333773  0.91495825    -0.87200
O3384       O  0.74909273  0.83811902  0.54819578    -0.87600
O3385       O  0.74878029  0.66267290  0.54869696    -0.87400
O3386       O  0.75224752  0.66306313  0.95142473    -0.87000
O3387       O  0.74849439  0.83731593  0.95062740    -0.87400
O3388       O  0.83589939  0.80114704  0.00194626    -0.87700
O3389       O  0.83558303  0.69975704  0.00075655    -0.89000
Zr3390     Zr  0.74948884  0.81258007  0.00056595     2.83100
Zr3391     Zr  0.74897961  0.68849569  0.00099495     2.83500
Zr3392     Zr  0.74952732  0.75078650  0.56160177     2.84100
Zr3393     Zr  0.74985322  0.75036950  0.93919392     2.83400
Zr3394     Zr  0.81105990  0.75055758  0.00150371     2.84200
O3395       O  0.78031947  0.71945034  0.97043913    -1.09600
O3396       O  0.78076965  0.78151296  0.53092082    -1.09100
C3397       C  0.82717588  0.82952200  0.00090935     1.05500
C3398       C  0.82659972  0.67141725  0.00128985     1.08200
C3399       C  0.74842643  0.82973578  0.57650809     1.05700
C3400       C  0.74757654  0.82818758  0.92248660     1.06100
C3401       C  0.75340771  0.67220362  0.92334734     1.05700
C3402       C  0.74804118  0.67154400  0.57677441     1.05200
C3403       C  0.82660376  0.75364189  0.57972324     1.05600
C3404       C  0.82849311  0.75337267  0.92396212     1.05200
H3405       H  0.79359670  0.70689301  0.54484349     0.31800
O3406       O  0.78116627  0.71951436  0.53166768    -1.30700
H3407       H  0.79310827  0.79443929  0.95751554     0.31900
O3408       O  0.78050003  0.78148240  0.97016812    -1.32100
C3409       C  0.73808542  0.59564237  0.61924186    -0.10200
C3410       C  0.75081130  0.60279735  0.64794211     0.06000
C3411       C  0.76266657  0.63261473  0.65254719    -0.04000
C3412       C  0.76090975  0.65438365  0.62921082    -0.08400
C3413       C  0.74797650  0.64739340  0.60069703     0.05100
C3414       C  0.73659072  0.61737931  0.59572468    -0.03400
Br3415     Br  0.71759429  0.60430897  0.55818562    -0.03100
H3416       H  0.72873768  0.57302169  0.61511316     0.09000
H3417       H  0.77051504  0.67689974  0.63326519     0.07000
Br3418     Br  0.78342512  0.64526166  0.68913010    -0.03600
C3419       C  0.76559154  0.90274560  0.62124330    -0.10200
C3420       C  0.74703168  0.89890684  0.64714318     0.06000
C3421       C  0.72727062  0.87351715  0.64840312    -0.04000
C3422       C  0.72836040  0.85116103  0.62538377    -0.08400
C3423       C  0.74778605  0.85430206  0.60002419     0.05100
C3424       C  0.76575693  0.88110047  0.59756268    -0.03400
Br3425     Br  0.79157788  0.88945462  0.56302359    -0.03100
H3426       H  0.78019325  0.92269937  0.61944956     0.09000
H3427       H  0.71306153  0.83181524  0.62666163     0.07000
Br3428     Br  0.69587580  0.87036791  0.67884777    -0.03600
C3429       C  0.75382221  0.86989522  0.84592854    -0.10200
C3430       C  0.74647187  0.90012641  0.85421506     0.06000
C3431       C  0.73871582  0.90613487  0.88518647    -0.04000
C3432       C  0.73915762  0.88235005  0.90662065    -0.08400
C3433       C  0.74690809  0.85219066  0.89830993     0.05100
C3434       C  0.75408876  0.84612281  0.86728177    -0.03400
Br3435     Br  0.76581128  0.80657968  0.85168460    -0.03100
H3436       H  0.75993330  0.86454736  0.82251252     0.08600
H3437       H  0.73308759  0.88760872  0.93008175     0.07000
Br3438     Br  0.72610068  0.94547983  0.90054260    -0.03600
C3439       C  0.73460831  0.65204039  0.87406814    -0.10200
C3440       C  0.75419662  0.64861031  0.89917224     0.06000
C3441       C  0.77315292  0.62255211  0.90081157    -0.04000
C3442       C  0.77186101  0.60038529  0.87763000    -0.08400
C3443       C  0.75195215  0.60370617  0.85265123     0.05100
C3444       C  0.73304070  0.62977707  0.85115147    -0.03400
Br3445     Br  0.70244853  0.63492214  0.82019796    -0.03100
H3446       H  0.71957535  0.67170211  0.87281743     0.09000
H3447       H  0.78674392  0.58061557  0.87893282     0.07000
Br3448     Br  0.80235502  0.61687499  0.93305349    -0.03600
C3449       C  0.87333617  0.65055537  0.76987287    -0.10200
C3450       C  0.89779498  0.64786206  0.74936458     0.06000
C3451       C  0.89946922  0.62181484  0.73020914    -0.04000
C3452       C  0.87668179  0.59945856  0.73160310    -0.08400
C3453       C  0.85222162  0.60215631  0.75205472     0.05100
C3454       C  0.85088280  0.62784020  0.77164701    -0.03400
Br3455     Br  0.82037260  0.63193722  0.80285763    -0.03100
H3456       H  0.87219358  0.66997759  0.78527912     0.09000
H3457       H  0.87767259  0.58019757  0.71607906     0.07000
Br3458     Br  0.93127284  0.61615465  0.70051077    -0.03600
C3459       C  0.86875306  0.84406600  0.75235608    -0.10200
C3460       C  0.89888872  0.85297989  0.74601785     0.06000
C3461       C  0.90437462  0.88428392  0.73937085    -0.04000
C3462       C  0.88055436  0.90561557  0.74092697    -0.08400
C3463       C  0.85051549  0.89680648  0.74795211     0.05100
C3464       C  0.84476199  0.86517010  0.75302515    -0.03400
Br3465     Br  0.80529780  0.84796873  0.76142360    -0.03100
H3466       H  0.86356756  0.82026954  0.75712602     0.09000
H3467       H  0.88565203  0.92937800  0.73589788     0.07000
Br3468     Br  0.94296054  0.89996649  0.72597002    -0.03600
C3469       C  0.59815844  0.62096093  0.76568736    -0.10200
C3470       C  0.60158276  0.64707616  0.74729077     0.06000
C3471       C  0.62852089  0.65053702  0.72994922    -0.04000
C3472       C  0.65173211  0.62863907  0.73212112    -0.08400
C3473       C  0.64832564  0.60251274  0.75056257     0.05100
C3474       C  0.62107903  0.59874898  0.76740617    -0.03400
Br3475     Br  0.61417440  0.56460670  0.79434210    -0.03100
H3476       H  0.57773182  0.61806546  0.77929523     0.09000
H3477       H  0.67213056  0.63151935  0.71846588     0.07000
Br3478     Br  0.63381184  0.68312705  0.70085071    -0.03600
C3479       C  0.62728025  0.84816911  0.76844803    -0.10200
C3480       C  0.60259759  0.85068117  0.74823738     0.06000
C3481       C  0.60122217  0.87605650  0.72827141    -0.04000
C3482       C  0.62373857  0.89880757  0.72961213    -0.08400
C3483       C  0.64824108  0.89655542  0.75016411     0.05100
C3484       C  0.64997877  0.87070047  0.76954758    -0.03400
Br3485     Br  0.68179010  0.86552346  0.79922351    -0.03100
H3486       H  0.62862257  0.82882058  0.78392375     0.09000
H3487       H  0.62256497  0.91793617  0.71390444     0.07000
Br3488     Br  0.57059362  0.87951684  0.69707450    -0.03600
C3489       C  0.88069284  0.76130268  0.59533729    -0.10200
C3490       C  0.85040731  0.75522933  0.60406270     0.06000
C3491       C  0.84422057  0.75030375  0.63551963    -0.04000
C3492       C  0.86804606  0.75038294  0.65668421    -0.08400
C3493       C  0.89844732  0.75531530  0.64779915     0.05100
C3494       C  0.90452985  0.76141798  0.61654906    -0.03400
Br3495     Br  0.94430413  0.77057079  0.60038642    -0.03100
H3496       H  0.88613636  0.76592747  0.57161005     0.09000
H3497       H  0.86255170  0.74589681  0.68042482     0.07000
Br3498     Br  0.80445355  0.74218233  0.65218814    -0.03600
C3499       C  0.62957780  0.75809788  0.65354934    -0.10200
C3500       C  0.60059926  0.74661691  0.64630897     0.06000
C3501       C  0.59551554  0.73538952  0.61634959    -0.04000
C3502       C  0.61837270  0.73810728  0.59409751    -0.08400
C3503       C  0.64756878  0.74929376  0.60141360     0.05100
C3504       C  0.65309224  0.75872057  0.63200222    -0.03400
Br3505     Br  0.69179431  0.77278118  0.64699775    -0.03100
H3506       H  0.63422564  0.76651617  0.67641422     0.09000
H3507       H  0.61354878  0.73016518  0.57112845     0.07000
Br3508     Br  0.55951293  0.71295604  0.60497738    -0.03600
C3509       C  0.59448870  0.74549586  0.88157965    -0.10200
C3510       C  0.60298811  0.74762234  0.85063585     0.06000
C3511       C  0.63458032  0.74926155  0.84368635    -0.04000
C3512       C  0.65614284  0.74929697  0.86731810    -0.08400
C3513       C  0.64757616  0.74785436  0.89830353     0.05100
C3514       C  0.61601681  0.74566437  0.90518879    -0.03400
Br3515     Br  0.59941918  0.74284598  0.94588870    -0.03100
H3516       H  0.57066007  0.74382831  0.88775533     0.09000
H3517       H  0.67999063  0.75083723  0.86118049     0.07000
Br3518     Br  0.65108342  0.75191715  0.80292086    -0.03600
C3519       C  0.90541737  0.75988545  0.88223559    -0.10200
C3520       C  0.89712160  0.75295115  0.85186506     0.06000
C3521       C  0.86594506  0.74697472  0.84576602    -0.04000
C3522       C  0.84443444  0.74829599  0.86937744    -0.08400
C3523       C  0.85275549  0.75448952  0.89983163     0.05100
C3524       C  0.88397788  0.76037737  0.90607632    -0.03400
Br3525     Br  0.89991446  0.76896928  0.94623603    -0.03100
H3526       H  0.92898646  0.76467460  0.88773414     0.09000
H3527       H  0.82092001  0.74328197  0.86380482     0.07000
Br3528     Br  0.85043141  0.73449654  0.80654347    -0.03600
C3529       C  0.87240081  0.90289983  0.98470962    -0.10200
C3530       C  0.89783885  0.89881227  0.50277846     0.06000
C3531       C  0.89991968  0.87280512  0.52186163    -0.04000
C3532       C  0.87721086  0.85019787  0.52080423    -0.08400
C3533       C  0.85173305  0.85330579  0.50155316     0.05100
C3534       C  0.84914339  0.88084416  0.98350876    -0.03400
Br3535     Br  0.81644875  0.88824155  0.95530719    -0.03100
H3536       H  0.87021026  0.92346059  0.97100653     0.09000
H3537       H  0.87912695  0.83040257  0.53563913     0.07000
Br3538     Br  0.93191389  0.86820963  0.55152436    -0.03600
C3539       C  0.87290599  0.59855982  0.51812340    -0.10200
C3540       C  0.89806839  0.60178135  0.49846055     0.06000
C3541       C  0.89960651  0.62924036  0.98055722    -0.04000
C3542       C  0.87661938  0.65154393  0.98251736    -0.08400
C3543       C  0.85259181  0.64793684  0.50181016     0.05100
C3544       C  0.85050277  0.62140772  0.52018719    -0.03400
Br3545     Br  0.81902341  0.61628710  0.55029661    -0.03100
H3546       H  0.87113980  0.57856829  0.53271406     0.09000
H3547       H  0.87891372  0.67238252  0.96924478     0.07000
Br3548     Br  0.93269564  0.63727434  0.95298314    -0.03600
C3549       C  0.61880132  0.84370645  0.50532108    -0.10200
C3550       C  0.64855374  0.85212065  0.49686871     0.06000
C3551       C  0.65031257  0.88035612  0.02045722    -0.04000
C3552       C  0.62721036  0.90247622  0.01932226    -0.08400
C3553       C  0.60051102  0.89609141  0.49840695     0.05100
C3554       C  0.59491030  0.86492033  0.50574794    -0.03400
Br3555     Br  0.55568191  0.84871483  0.51668978    -0.03100
H3556       H  0.61387203  0.82025039  0.51176387     0.09000
H3557       H  0.62905196  0.92265271  0.03370638     0.07000
Br3558     Br  0.68293911  0.88719530  0.04893767    -0.03600
C3559       C  0.64561796  0.62845800  0.47441106    -0.10200
C3560       C  0.64925008  0.64751917  0.50006040     0.06000
C3561       C  0.62586091  0.64555850  0.02439188    -0.04000
C3562       C  0.60359608  0.62254691  0.02348970    -0.08400
C3563       C  0.60321258  0.60203899  0.49900692     0.05100
C3564       C  0.62272968  0.60597245  0.47366414    -0.03400
Br3565     Br  0.61764311  0.58263858  0.43681650    -0.03100
H3566       H  0.66023711  0.63148473  0.45466525     0.09000
H3567       H  0.58859434  0.61951577  0.04294894     0.07000
Br3568     Br  0.62811521  0.67043981  0.06042217    -0.03600
C3569       C  0.90496208  0.01236541  0.86919974    -0.10200
C3570       C  0.89951425  0.50097092  0.89771543     0.06000
C3571       C  0.86910754  0.49183853  0.90380004    -0.04000
C3572       C  0.84704442  0.49331692  0.88081692    -0.08400
C3573       C  0.85406168  0.50358451  0.85124834     0.05100
C3574       C  0.88278057  0.01352764  0.84608322    -0.03400
Br3575     Br  0.89619997  0.02894353  0.80717682    -0.03100
H3576       H  0.92822411  0.01818928  0.86334280     0.09000
H3577       H  0.82418604  0.48560439  0.88609002     0.07000
Br3578     Br  0.85545980  0.47546719  0.94220561    -0.03600
C3579       C  0.59658124  0.48748706  0.86986393    -0.10200
C3580       C  0.60365077  0.49641528  0.89992848     0.06000
C3581       C  0.63528130  0.99598431  0.90698415    -0.04000
C3582       C  0.65671064  0.99737458  0.88335064    -0.08400
C3583       C  0.64913453  0.49549981  0.85348304     0.05100
C3584       C  0.61877427  0.48653234  0.84691783    -0.03400
Br3585     Br  0.60553232  0.47111034  0.80783791    -0.03100
H3586       H  0.57355364  0.48070031  0.86408919     0.09000
H3587       H  0.68042894  0.00037847  0.88941391     0.07000
Br3588     Br  0.65191552  0.99489834  0.94775875    -0.03600
C3589       C  0.65351809  0.01223292  0.61967583    -0.10200
C3590       C  0.64735081  0.50340423  0.65029373     0.06000
C3591       C  0.61600589  0.50792948  0.65686943    -0.04000
C3592       C  0.59453237  0.50680843  0.63325522    -0.08400
C3593       C  0.60308440  0.50208365  0.60259706     0.05100
C3594       C  0.63164270  0.01394187  0.59644645    -0.03400
Br3595     Br  0.64435655  0.03275781  0.55875650    -0.03100
H3596       H  0.67645109  0.01991265  0.61469576     0.09000
H3597       H  0.57080316  0.51022365  0.63908746     0.07000
Br3598     Br  0.59996671  0.51710126  0.69686857    -0.03600
C3599       C  0.84564467  0.49238579  0.61970338    -0.10200
C3600       C  0.85304795  0.50111417  0.64973224     0.06000
C3601       C  0.88261765  0.00303324  0.65455069    -0.04000
C3602       C  0.90428419  0.00319721  0.63108391    -0.08400
C3603       C  0.89796417  0.50058168  0.60272405     0.05100
C3604       C  0.86760669  0.49141198  0.59655171    -0.03400
Br3605     Br  0.85434116  0.47463791  0.55808985    -0.03100
H3606       H  0.82266995  0.48515206  0.61426005     0.09000
H3607       H  0.92756463  0.00902514  0.63686184     0.07000
Br3608     Br  0.89823185  0.01248818  0.69457889    -0.03600
C3609       C  0.51421833  0.65157720  0.87847306    -0.10200
C3610       C  0.49865518  0.64612096  0.85092011     0.06000
C3611       C  0.98240938  0.61711389  0.84664700    -0.04000
C3612       C  0.98443275  0.59502076  0.86977658    -0.08400
C3613       C  0.50049589  0.60098704  0.89745626     0.05100
C3614       C  0.51546778  0.62938139  0.90148946    -0.03400
Br3615     Br  0.53981227  0.63875005  0.93682480    -0.03100
H3616       H  0.52616253  0.67305138  0.88189885     0.09000
H3617       H  0.97304304  0.57320605  0.86658414     0.07000
Br3618     Br  0.95834278  0.60679764  0.81138796    -0.03600
C3619       C  0.49273433  0.86828511  0.90558231    -0.10200
C3620       C  0.50174371  0.89816911  0.89768834     0.06000
C3621       C  0.00496546  0.90406026  0.86687570    -0.04000
C3622       C  0.00462699  0.88033244  0.84537378    -0.08400
C3623       C  0.50104712  0.85024047  0.85329910     0.05100
C3624       C  0.49255295  0.84445331  0.88408989    -0.03400
Br3625     Br  0.47979427  0.80514330  0.89916910    -0.03100
H3626       H  0.48557970  0.86326771  0.92876895     0.09000
H3627       H  0.00806483  0.88621949  0.82155090     0.07000
Br3628     Br  0.01233270  0.94429849  0.85044820    -0.03600
C3629       C  0.51606433  0.86917233  0.59647189    -0.10200
C3630       C  0.50337910  0.89803942  0.60299725     0.06000
C3631       C  0.99320367  0.90377514  0.63268451    -0.04000
C3632       C  0.99419967  0.88030691  0.65431892    -0.08400
C3633       C  0.50387731  0.85092983  0.64769015     0.05100
C3634       C  0.51672929  0.84581692  0.61841948    -0.03400
Br3635     Br  0.53721302  0.80845489  0.60719538    -0.03100
H3636       H  0.52589289  0.86480800  0.57422176     0.09000
H3637       H  0.98646696  0.88525895  0.67727165     0.07000
Br3638     Br  0.97634753  0.94200583  0.64660204    -0.03600
C3639       C  0.52352387  0.62826966  0.64524338    -0.10200
C3640       C  0.49876375  0.64839520  0.64734896     0.06000
C3641       C  0.97526114  0.64857512  0.62376591    -0.04000
C3642       C  0.97613694  0.62621545  0.60072878    -0.08400
C3643       C  0.50028635  0.60341041  0.60142162     0.05100
C3644       C  0.52450661  0.60596239  0.62233689    -0.03400
Br3645     Br  0.56010733  0.58068444  0.61929435    -0.03100
H3646       H  0.54238541  0.63029709  0.66111835     0.09000
H3647       H  0.95821052  0.62553881  0.58369499     0.07000
Br3648     Br  0.94211390  0.67740695  0.62410633    -0.03600
loop_ 
_geom_bond_atom_site_label_1 
_geom_bond_atom_site_label_2 
_geom_bond_distance 
_geom_bond_site_symmetry_2 
_ccdc_geom_bond_type 
O1          Zr37   2.455       .  S
O1           C12   1.295       .  A
O2          Zr36   2.435   1_545  S
O2           C13   1.293       .  A
O3           Zr9   2.443   1_554  S
O3           C14   1.292       .  A
O4        Zr1833   2.452       .  S
O4           C15   1.295       .  A
O5          Zr39   2.441       .  S
O5           C15   1.293       .  A
O6          Zr38   2.439   1_556  S
O6           C14   1.291   1_556  A
O7         Zr465   2.434       .  S
O7           C13   1.291       .  A
O8           Zr9   2.439   1_554  S
O8           C12   1.292       .  A
Zr9        O1828   2.451   1_455  S
Zr9         O463   2.447       .  S
Zr9          O11   2.337   1_556  S
Zr9        O2290   2.341   1_455  S
Zr9        O1843   2.351   1_456  S
Zr9         O473   2.342       .  S
O10       Zr2289   2.341       .  S
O10       Zr1860   2.344   1_545  S
O10        Zr495   2.335   1_545  S
O11         Zr37   2.343       .  S
O11         Zr38   2.335       .  S
C12         C451   1.479       .  S
C13         C421   1.481       .  S
C14         C371   1.472   1_554  S
C15         C348   1.484       .  S
H16          O17   0.966       .  S
O17         Zr36   2.345   1_545  S
O17        Zr465   2.354       .  S
O17        Zr494   2.340   1_545  S
H18          O19   0.967       .  S
O19         Zr39   2.351   1_554  S
O19       Zr1833   2.348   1_554  S
O19       Zr1861   2.350       .  S
O20        Zr948   2.431       .  S
O20          C43   1.291   1_455  A
O21        Zr949   2.442       .  S
O21          C44   1.293       .  A
O22        Zr494   2.418       .  S
O22          C45   1.286       .  A
O23        Zr495   2.428   1_545  S
O23          C46   1.288       .  A
O24         Zr39   2.438   1_554  S
O24          C47   1.291       .  A
O25         Zr38   2.425       .  S
O25          C48   1.287       .  A
O26         Zr40   2.428       .  S
O26          C49   1.287       .  A
O27       Zr1864   2.444       .  S
O27          C50   1.292       .  A
O28        Zr950   2.448       .  S
O28          C49   1.294       .  A
O29        Zr951   2.457   1_554  S
O29          C50   1.296       .  A
O30         Zr36   2.458       .  S
O30          C45   1.297       .  A
O31         Zr37   2.442       .  S
O31          C48   1.294       .  A
O32       Zr1861   2.449       .  S
O32          C47   1.295       .  A
O33       Zr1860   2.447   1_545  S
O33          C46   1.295       .  A
O34        Zr496   2.457       .  S
O34          C43   1.296       .  A
O35         Zr40   2.437       .  S
O35          C44   1.292       .  A
Zr36        O932   2.439       .  S
Zr36       O1857   2.458   1_465  S
Zr36       O1834   2.342   1_465  S
Zr36        O954   2.336       .  S
Zr36       O2790   2.348   1_455  S
Zr37        O933   2.457   1_445  S
Zr37       O1856   2.459   1_455  S
Zr37       O1843   2.347   1_455  S
Zr37       O2777   2.341   1_445  S
Zr37        O964   2.351   1_545  S
Zr38        O478   2.431   1_544  S
Zr38        O940   2.431   1_545  S
Zr38        O473   2.334   1_554  S
Zr38       O1410   2.336   1_544  S
Zr38        O964   2.342   1_545  S
Zr39        O479   2.432       .  S
Zr39        O941   2.469   1_545  S
Zr39        O466   2.342       .  S
Zr39        O953   2.336   1_546  S
Zr39       O1422   2.343   1_545  S
Zr40       O1851   2.438   1_455  S
Zr40        O490   2.441   1_554  S
Zr40         O52   2.346       .  S
Zr40       O1865   2.337   1_455  S
Zr40        O498   2.339   1_554  S
Zr40       O2334   2.347   1_454  S
O41       Zr2773   2.343       .  S
O41        Zr951   2.340   1_554  S
O41       Zr1864   2.335       .  S
O42        Zr948   2.338       .  S
O42       Zr1406   2.340       .  S
O42        Zr496   2.347   1_455  S
C43         C428   1.483       .  S
C44         C438   1.478       .  S
C45         C388   1.493       .  S
C46         C378   1.492       .  S
C47         C411   1.495       .  S
C48         C401   1.488       .  S
C49         C361   1.495       .  S
C50         C338   1.494       .  S
H51          O52   0.967       .  S
O52        Zr949   2.345       .  S
O52        Zr950   2.340       .  S
H53          O54   0.967       .  S
O54       Zr2772   2.347       .  S
O54       Zr1407   2.338       .  S
O54       Zr2320   2.338       .  S
O55         Zr91   2.427   1_455  S
O55          C66   1.290       .  A
O56         Zr90   2.440   1_655  S
O56          C67   1.293       .  A
O57         Zr63   2.450   1_455  S
O57          C68   1.295       .  A
O58       Zr1887   2.453       .  S
O58          C69   1.294       .  A
O59         Zr93   2.439       .  S
O59          C69   1.292       .  A
O60         Zr92   2.446       .  S
O60          C68   1.293       .  A
O61         Zr63   2.443       .  S
O61          C67   1.293       .  A
O62         Zr63   2.439   1_455  S
O62          C66   1.292       .  A
Zr63       O1882   2.454       .  S
Zr63         O65   2.337   1_655  S
Zr63         O71   2.342   1_655  S
Zr63       O1888   2.340       .  S
Zr63       O1897   2.346       .  S
O64         Zr93   2.344       .  S
O64       Zr1887   2.336       .  S
O64       Zr1914   2.338       .  S
O65         Zr91   2.333   1_455  S
O65         Zr92   2.337       .  S
C66         C448   1.471       .  S
C67         C418   1.485       .  S
C68         C278   1.488       .  S
C69         C258   1.493       .  S
H70          O71   0.966       .  S
O71         Zr90   2.341       .  S
O71         Zr92   2.346       .  S
H72          O73   0.966       .  S
O73         Zr93   2.345       .  S
O73       Zr1887   2.346       .  S
O73       Zr1915   2.342       .  S
O74         Zr90   2.441       .  S
O74          C97   1.293       .  A
O75         Zr91   2.431   1_455  S
O75          C98   1.290       .  A
O76         Zr92   2.440       .  S
O76          C99   1.291       .  A
O77         Zr93   2.426       .  S
O77         C100   1.287       .  A
O78         Zr93   2.435       .  S
O78         C101   1.292       .  A
O79         Zr92   2.433       .  S
O79         C102   1.292       .  A
O80         Zr94   2.427       .  S
O80         C103   1.289       .  A
O81       Zr1918   2.444       .  S
O81         C104   1.293       .  A
O82         Zr92   2.458       .  S
O82         C103   1.296       .  A
O83         Zr93   2.445       .  S
O83         C104   1.293       .  A
O84         Zr90   2.455       .  S
O84          C99   1.297       .  A
O85         Zr91   2.432   1_455  S
O85         C102   1.290       .  A
O86       Zr1915   2.440       .  S
O86         C101   1.291       .  A
O87       Zr1914   2.463       .  S
O87         C100   1.298       .  A
O88         Zr94   2.450       .  S
O88          C97   1.295       .  A
O89         Zr94   2.461       .  S
O89          C98   1.296       .  A
Zr90       O1911   2.452   1_455  S
Zr90         O96   2.346       .  S
Zr90       O1888   2.341   1_455  S
Zr90       O1932   2.344   1_455  S
Zr91       O1910   2.443       .  S
Zr91        O106   2.340   1_655  S
Zr91       O1897   2.342       .  S
Zr91       O1919   2.336       .  S
Zr92         O96   2.341       .  S
Zr92        O106   2.341       .  S
Zr93         O95   2.337       .  S
Zr93        O108   2.347       .  S
Zr94       O1905   2.423   1_455  S
Zr94         O96   2.349       .  S
Zr94        O106   2.337       .  S
Zr94       O1919   2.340   1_455  S
Zr94       O1932   2.342   1_455  S
O95       Zr1915   2.339       .  S
O95       Zr1918   2.340       .  S
C97         C431   1.487       .  S
C98         C441   1.482       .  S
C99         C318   1.498       .  S
C100        C328   1.501       .  S
C101        C301   1.488       .  S
C102        C308   1.487       .  S
C103        C288   1.485       .  S
C104        C268   1.485       .  S
H105        O106   0.965       .  S
H107        O108   0.966       .  S
O108      Zr1914   2.351       .  S
O108      Zr1918   2.343       .  S
O109       Zr145   2.436       .  S
O109        C120   1.290       .  A
O110       Zr144   2.428       .  S
O110        C121   1.288       .  A
O111       Zr117   2.437       .  S
O111        C122   1.293       .  A
O112      Zr1029   2.429   1_545  S
O112        C123   1.290       .  A
O113       Zr147   2.443       .  S
O113        C123   1.293       .  A
O114       Zr146   2.434       .  S
O114        C122   1.291       .  A
O115       Zr117   2.452       .  S
O115        C121   1.295       .  A
O116       Zr117   2.450       .  S
O116        C120   1.295       .  A
Zr117      O1024   2.436       .  S
Zr117       O119   2.347       .  S
Zr117       O125   2.348       .  S
Zr117      O1030   2.340       .  S
Zr117      O1039   2.344       .  S
O118       Zr147   2.329       .  S
O118      Zr1029   2.342   1_545  S
O118      Zr1056   2.336   1_545  S
O119       Zr145   2.339       .  S
O119       Zr146   2.342       .  S
C120       C1320   1.494       .  S
C121       C1310   1.494       .  S
C122        C228   1.478       .  S
C123        C218   1.477       .  S
H124        O125   0.966       .  S
O125       Zr144   2.338       .  S
O125       Zr146   2.348       .  S
H126        O127   0.966       .  S
O127       Zr147   2.346       .  S
O127      Zr1029   2.340   1_545  S
O127      Zr1057   2.348       .  S
O128       Zr144   2.428       .  S
O128        C151   1.288       .  A
O129       Zr145   2.431       .  S
O129        C152   1.288       .  A
O130       Zr146   2.443       .  S
O130        C153   1.292       .  A
O131       Zr147   2.444       .  S
O131        C154   1.293       .  A
O132       Zr147   2.427       .  S
O132        C155   1.289       .  A
O133       Zr146   2.444       .  S
O133        C156   1.293       .  A
O134       Zr148   2.454       .  S
O134        C157   1.295       .  A
O135      Zr1060   2.442       .  S
O135        C158   1.294       .  A
O136       Zr146   2.446       .  S
O136        C157   1.293       .  A
O137       Zr147   2.439       .  S
O137        C158   1.291       .  A
O138       Zr144   2.439       .  S
O138        C153   1.293       .  A
O139       Zr145   2.435       .  S
O139        C156   1.291       .  A
O140      Zr1057   2.458       .  S
O140        C155   1.297       .  A
O141      Zr1056   2.445   1_545  S
O141        C154   1.293       .  A
O142       Zr148   2.453       .  S
O142        C151   1.296       .  A
O143       Zr148   2.458       .  S
O143        C152   1.298       .  A
Zr144      O1053   2.430       .  S
Zr144       O150   2.335       .  S
Zr144      O1030   2.337       .  S
Zr144      O1074   2.338       .  S
Zr145      O1052   2.443       .  S
Zr145       O160   2.340       .  S
Zr145      O1039   2.339       .  S
Zr145      O1061   2.336       .  S
Zr146       O150   2.336       .  S
Zr146       O160   2.339       .  S
Zr147       O149   2.342       .  S
Zr147       O162   2.342       .  S
Zr148      O1047   2.448       .  S
Zr148       O150   2.339       .  S
Zr148       O160   2.339       .  S
Zr148      O1061   2.343       .  S
Zr148      O1074   2.348       .  S
O149      Zr1057   2.340       .  S
O149      Zr1060   2.334       .  S
C151       C1303   1.498       .  S
C152       C1293   1.500       .  S
C153        C291   1.487       .  S
C154        C281   1.487       .  S
C155        C261   1.491       .  S
C156        C271   1.479       .  S
C157        C238   1.485       .  S
C158        C251   1.486       .  S
H159        O160   0.966       .  S
H161        O162   0.966       .  S
O162      Zr1056   2.342   1_545  S
O162      Zr1060   2.347       .  S
O163       Zr199   2.459       .  S
O163        C174   1.295       .  A
O164       Zr198   2.432       .  S
O164        C175   1.290       .  A
O165       Zr627   2.453       .  S
O165        C176   1.296       .  A
O166       Zr171   2.437       .  S
O166        C177   1.291       .  A
O167       Zr201   2.457       .  S
O167        C177   1.297       .  A
O168       Zr200   2.426       .  S
O168        C176   1.288       .  A
O169       Zr171   2.449       .  S
O169        C175   1.296       .  A
O170       Zr171   2.452       .  S
O170        C174   1.294       .  A
Zr171       O621   2.459       .  S
Zr171       O172   2.347       .  S
Zr171       O181   2.351       .  S
Zr171       O629   2.335       .  S
Zr171       O635   2.340       .  S
O172       Zr198   2.345       .  S
O172       Zr201   2.345       .  S
O173       Zr200   2.338       .  S
O173       Zr627   2.336       .  S
O173       Zr655   2.342   1_554  S
C174        C824   1.483       .  S
C175        C814   1.492       .  S
C176        C311   1.492       .  S
C177        C321   1.498       .  S
H178        O179   0.965       .  S
O179       Zr200   2.338       .  S
O179       Zr627   2.336       .  S
O179       Zr654   2.341       .  S
H180        O181   0.966       .  S
O181       Zr199   2.339       .  S
O181       Zr201   2.343       .  S
O182       Zr198   2.447       .  S
O182        C205   1.293       .  A
O183       Zr199   2.446       .  S
O183        C206   1.293       .  A
O184       Zr200   2.459       .  S
O184        C207   1.297       .  A
O185       Zr201   2.432       .  S
O185        C208   1.290       .  A
O186       Zr201   2.435       .  S
O186        C209   1.292       .  A
O187       Zr200   2.453       .  S
O187        C210   1.296       .  A
O188       Zr658   2.444       .  S
O188        C211   1.294       .  A
O189       Zr202   2.445       .  S
O189        C212   1.291       .  A
O190       Zr200   2.433       .  S
O190        C211   1.290       .  A
O191       Zr201   2.453       .  S
O191        C212   1.296       .  A
O192       Zr654   2.417       .  S
O192        C207   1.287       .  A
O193       Zr655   2.428   1_554  S
O193        C210   1.289       .  A
O194       Zr199   2.446       .  S
O194        C209   1.293       .  A
O195       Zr198   2.456       .  S
O195        C208   1.296       .  A
O196       Zr202   2.459       .  S
O196        C205   1.296       .  A
O197       Zr202   2.452       .  S
O197        C206   1.295       .  A
Zr198       O648   2.451       .  S
Zr198       O216   2.343       .  S
Zr198       O635   2.351       .  S
Zr198       O660   2.342       .  S
Zr199       O649   2.426       .  S
Zr199       O203   2.339       .  S
Zr199       O629   2.343       .  S
Zr199       O670   2.354       .  S
Zr200       O204   2.341       .  S
Zr200       O214   2.343       .  S
Zr201       O203   2.336       .  S
Zr201       O216   2.346       .  S
Zr202       O644   2.448       .  S
Zr202       O203   2.342       .  S
Zr202       O216   2.345       .  S
Zr202       O660   2.340       .  S
Zr202       O670   2.352       .  S
O204       Zr654   2.339       .  S
O204       Zr658   2.333       .  S
C205        C797   1.491       .  S
C206        C807   1.487       .  S
C207        C231   1.484       .  S
C208        C241   1.482       .  S
C209        C248   1.486       .  S
C210        C221   1.482       .  S
C211        C298   1.491       .  S
C212        C331   1.505       .  S
H213        O214   0.966       .  S
O214       Zr655   2.345   1_554  S
O214       Zr658   2.347       .  S
H215        O216   0.966       .  S
C217        C218   1.406       .  A
C217        C222   1.402       .  A
C217        H224   1.084       .  S
C218        C219   1.409       .  A
C219        C220   1.394       .  A
C219       Br226   1.920       .  S
C220        C221   1.402       .  A
C220        H225   1.081       .  S
C221        C222   1.416       .  A
C222       Br223   1.921       .  S
C227        C228   1.402       .  A
C227        C232   1.399       .  A
C227        H234   1.084       .  S
C228        C229   1.411       .  A
C229        C230   1.398       .  A
C229       Br236   1.923       .  S
C230        C231   1.403       .  A
C230        H235   1.081       .  S
C231        C232   1.418       .  A
C232       Br233   1.924       .  S
C237        C238   1.406       .  A
C237        C242   1.404       .  A
C237        H244   1.084       .  S
C238        C239   1.411       .  A
C239        C240   1.400       .  A
C239       Br246   1.917       .  S
C240        C241   1.402       .  A
C240        H245   1.082       .  S
C241        C242   1.413       .  A
C242       Br243   1.921       .  S
C247        C248   1.405       .  A
C247        C252   1.397       .  A
C247        H254   1.084       .  S
C248        C249   1.414       .  A
C249        C250   1.401       .  A
C249       Br256   1.921       .  S
C250        C251   1.407       .  A
C250        H255   1.084       .  S
C251        C252   1.414       .  A
C252       Br253   1.922       .  S
C257        C258   1.409       .  A
C257        C262   1.405       .  A
C257        H264   1.083       .  S
C258        C259   1.415       .  A
C259        C260   1.398       .  A
C259       Br266   1.924       .  S
C260        C261   1.403       .  A
C260        H265   1.081       .  S
C261        C262   1.418       .  A
C262       Br263   1.927       .  S
C267        C268   1.407       .  A
C267        C272   1.401       .  A
C267        H274   1.084       .  S
C268        C269   1.414       .  A
C269        C270   1.401       .  A
C269       Br276   1.919       .  S
C270        C271   1.404       .  A
C270        H275   1.084       .  S
C271        C272   1.409       .  A
C272       Br273   1.922       .  S
C277        C278   1.405       .  A
C277        C282   1.401       .  A
C277        H284   1.084       .  S
C278        C279   1.415       .  A
C279        C280   1.401       .  A
C279       Br286   1.920       .  S
C280        C281   1.405       .  A
C280        H285   1.084       .  S
C281        C282   1.413       .  A
C282       Br283   1.920       .  S
C287        C288   1.403       .  A
C287        C292   1.400       .  A
C287        H294   1.084       .  S
C288        C289   1.415       .  A
C289        C290   1.400       .  A
C289       Br296   1.923       .  S
C290        C291   1.405       .  A
C290        H295   1.083       .  S
C291        C292   1.415       .  A
C292       Br293   1.920       .  S
C297        C298   1.407       .  A
C297        C302   1.399       .  A
C297        H304   1.083       .  S
C298        C299   1.418       .  A
C299        C300   1.399       .  A
C299       Br306   1.922       .  S
C300        C301   1.405       .  A
C300        H305   1.084       .  S
C301        C302   1.413       .  A
C302       Br303   1.922       .  S
C307        C308   1.405       .  A
C307        C312   1.397       .  A
C307        H314   1.083       .  S
C308        C309   1.415       .  A
C309        C310   1.398       .  A
C309       Br316   1.924       .  S
C310        C311   1.407       .  A
C310        H315   1.083       .  S
C311        C312   1.420       .  A
C312       Br313   1.923       .  S
C317        C318   1.404       .  A
C317        C322   1.398       .  A
C317        H324   1.080       .  S
C318        C319   1.418       .  A
C319        C320   1.405       .  A
C319       Br326   1.924       .  S
C320        C321   1.409       .  A
C320        H325   1.083       .  S
C321        C322   1.419       .  A
C322       Br323   1.926       .  S
C327        C328   1.405       .  A
C327        C332   1.401       .  A
C327        H334   1.083       .  S
C328        C329   1.422       .  A
C329        C330   1.403       .  A
C329       Br336   1.927       .  S
C330        C331   1.409       .  A
C330        H335   1.083       .  S
C331        C332   1.421       .  A
C332       Br333   1.923       .  S
C337        C342   1.405       .  A
C337        C794   1.407       .  A
C337        H344   1.083       .  S
C338        C339   1.418       .  A
C338        C793   1.407   1_554  A
C339        C340   1.401       .  A
C339       Br346   1.921       .  S
C340        C341   1.405       .  A
C340        H345   1.084       .  S
C341        C661   1.489       .  S
C341        C798   1.416   1_554  A
C342        C797   1.415       .  A
C342       Br343   1.923       .  S
C347        C348   1.405   1_554  A
C347        C352   1.399       .  A
C347        H354   1.084       .  S
C348        C805   1.412       .  A
C349        C350   1.403       .  A
C349        C804   1.412       .  A
C349       Br356   1.921       .  S
C350        C807   1.407       .  A
C350        H355   1.084       .  S
C351        C662   1.482       .  S
C351        C352   1.412   1_556  A
C351        C806   1.407       .  A
C352       Br353   1.923       .  S
C357        C358   1.404       .  A
C357        C362   1.396       .  A
C357        H364   1.083       .  S
C358        C631   1.492       .  S
C358        C815   1.422   1_554  A
C359        C360   1.398       .  A
C359        C814   1.418       .  A
C359       Br366   1.923       .  S
C360        C817   1.407       .  A
C360        H365   1.084       .  S
C361        C362   1.421       .  A
C361        C816   1.407   1_554  A
C362       Br363   1.926       .  S
C367        C368   1.403       .  A
C367        C372   1.401       .  A
C367        H374   1.084       .  S
C368        C630   1.473       .  S
C368        C825   1.408   1_556  A
C369        C370   1.402       .  A
C369        C824   1.412       .  A
C369       Br376   1.916       .  S
C370        C827   1.401       .  A
C370        H375   1.084       .  S
C371        C372   1.409       .  A
C371        C826   1.402   1_556  A
C372       Br373   1.919       .  S
C377        C382   1.403       .  A
C377       C1290   1.408       .  A
C377        H384   1.083       .  S
C378        C379   1.419   1_545  A
C378       C1289   1.406       .  A
C379        C380   1.397       .  A
C379       Br386   1.924       .  S
C380        C381   1.404   1_565  A
C380        H385   1.083       .  S
C381       C1064   1.493       .  S
C381       C1294   1.420       .  A
C382       C1293   1.422       .  A
C382       Br383   1.926       .  S
C387        C388   1.406       .  A
C387        C392   1.400       .  A
C387        H394   1.083       .  S
C388       C1301   1.421   1_565  A
C389        C390   1.400       .  A
C389       C1300   1.422       .  A
C389       Br396   1.923       .  S
C390       C1303   1.405       .  A
C390        H395   1.083       .  S
C391       C1063   1.493       .  S
C391        C392   1.419       .  A
C391       C1302   1.405       .  A
C392       Br393   1.927       .  S
C397        C402   1.401       .  A
C397       C1310   1.407       .  A
C397        H404   1.083       .  S
C398       C1033   1.487       .  S
C398        C399   1.418   1_545  A
C398       C1309   1.405       .  A
C399        C400   1.396       .  A
C399       Br406   1.923       .  S
C400        C401   1.405   1_565  A
C400        H405   1.083       .  S
C401       C1314   1.418       .  A
C402       C1313   1.416       .  A
C402       Br403   1.923       .  S
C407        C408   1.404   1_565  A
C407        C412   1.398       .  A
C407        H414   1.083       .  S
C408       C1032   1.492       .  S
C408       C1321   1.420       .  A
C409        C410   1.396       .  A
C409       C1320   1.419       .  A
C409       Br416   1.918       .  S
C410       C1323   1.401       .  A
C410        H415   1.083       .  S
C411        C412   1.418   1_545  A
C411       C1322   1.407       .  A
C412       Br413   1.922       .  S
C417        C418   1.406   1_455  A
C417        C422   1.398       .  A
C417        H424   1.084       .  S
C418       C2243   1.413       .  A
C419        C420   1.400       .  A
C419       C2242   1.414       .  A
C419       Br426   1.922       .  S
C420       C2245   1.406       .  A
C420        H425   1.084       .  S
C421        C422   1.414       .  A
C421       C2244   1.406   1_455  A
C422       Br423   1.924       .  S
C427        C428   1.401   1_455  A
C427        C432   1.400       .  A
C427        H434   1.084       .  S
C428       C2253   1.414       .  A
C429        C430   1.397       .  A
C429       C2252   1.419       .  A
C429       Br436   1.926       .  S
C430       C2255   1.406       .  A
C430        H435   1.082       .  S
C431        C432   1.414       .  A
C431       C2254   1.404   1_455  A
C432       Br433   1.911       .  S
C437        C438   1.403       .  A
C437        C442   1.399       .  A
C437        H444   1.084       .  S
C438       C2263   1.411   1_455  A
C439        C440   1.401       .  A
C439       C2262   1.412       .  A
C439       Br446   1.920       .  S
C440       C2265   1.404       .  A
C440        H445   1.084       .  S
C441        C442   1.414       .  A
C441       C2264   1.404   1_455  A
C442       Br443   1.919       .  S
C447        C448   1.403       .  A
C447        C452   1.401       .  A
C447        H454   1.084       .  S
C448       C2273   1.409   1_455  A
C449        C450   1.395       .  A
C449       C2272   1.409       .  A
C449       Br456   1.922       .  S
C450       C2275   1.402       .  A
C450        H455   1.084       .  S
C451        C452   1.412       .  A
C451       C2274   1.404   1_455  A
C452       Br453   1.919       .  S
O457       Zr493   2.448       .  S
O457        C468   1.294       .  A
O458       Zr492   2.422   1_545  S
O458        C469   1.290       .  A
O459       Zr465   2.440       .  S
O459        C470   1.292       .  A
O460      Zr2289   2.454       .  S
O460        C471   1.295       .  A
O461       Zr495   2.443   1_545  S
O461        C471   1.293       .  A
O462       Zr494   2.452   1_545  S
O462        C470   1.294       .  A
O463        C469   1.294       .  A
O464       Zr465   2.451       .  S
O464        C468   1.294       .  A
Zr465      O2284   2.454   1_455  S
Zr465      O1834   2.337   1_455  S
Zr465       O467   2.338       .  S
Zr465      O2299   2.343   1_455  S
O466      Zr1833   2.343       .  S
O466      Zr2316   2.342       .  S
O467       Zr493   2.338       .  S
O467       Zr494   2.340   1_545  S
C468        C907   1.482       .  S
C469        C877   1.471       .  S
C470        C827   1.475       .  S
C471        C804   1.487       .  S
H472        O473   0.966       .  S
O473       Zr492   2.344   1_545  S
H474        O475   0.967       .  S
O475      Zr2289   2.342       .  S
O475      Zr2317   2.344   1_545  S
O475       Zr495   2.344   1_545  S
O476      Zr1404   2.442       .  S
O476        C499   1.292       .  A
O477      Zr1405   2.449   1_655  S
O477        C500   1.294       .  A
O478        C501   1.288       .  A
O479        C502   1.288       .  A
O480       Zr495   2.421       .  S
O480        C503   1.287       .  A
O481       Zr494   2.423   1_545  S
O481        C504   1.288       .  A
O482       Zr496   2.433   1_455  S
O482        C505   1.290       .  A
O483      Zr2320   2.450       .  S
O483        C506   1.294       .  A
O484      Zr1406   2.435       .  S
O484        C505   1.293       .  A
O485      Zr1407   2.450       .  S
O485        C506   1.294       .  A
O486       Zr492   2.462       .  S
O486        C501   1.297       .  A
O487       Zr493   2.447       .  S
O487        C504   1.295       .  A
O488      Zr2317   2.451       .  S
O488        C503   1.296       .  A
O489      Zr2316   2.462       .  S
O489        C502   1.297       .  A
O490        C499   1.293       .  A
O491       Zr496   2.459   1_455  S
O491        C500   1.295   1_455  A
Zr492      O1388   2.427   1_455  S
Zr492      O2313   2.468   1_465  S
Zr492      O2290   2.342   1_465  S
Zr492      O1410   2.338       .  S
Zr492      O3246   2.342   1_455  S
Zr493      O1389   2.437   1_545  S
Zr493      O2312   2.467   1_445  S
Zr493      O2299   2.344   1_455  S
Zr493      O3233   2.339   1_445  S
Zr493      O1420   2.350   1_545  S
Zr494      O1396   2.455       .  S
Zr494       O954   2.333       .  S
Zr494      O1420   2.339       .  S
Zr495      O1397   2.445       .  S
Zr495      O1409   2.339       .  S
Zr495       O966   2.342       .  S
Zr496      O2307   2.455       .  S
Zr496      O2321   2.338       .  S
Zr496      O1878   2.341       .  S
Zr496       O508   2.349   1_655  S
O497      Zr3229   2.345       .  S
O497      Zr1407   2.339       .  S
O497      Zr2320   2.337       .  S
O498      Zr1404   2.341       .  S
O498       Zr950   2.339   1_556  S
C499        C884   1.484       .  S
C500        C894   1.483       .  S
C501        C844   1.501       .  S
C502        C834   1.501       .  S
C503        C867   1.491       .  S
C504        C857   1.487       .  S
C505        C817   1.489       .  S
C506        C794   1.491       .  S
H507        O508   0.967       .  S
O508      Zr1405   2.343       .  S
O508      Zr1406   2.347       .  S
H509        O510   0.967       .  S
O510      Zr3228   2.347       .  S
O510       Zr951   2.339       .  S
O510      Zr1864   2.345   1_556  S
O511       Zr547   2.442       .  S
O511        C522   1.293       .  A
O512       Zr546   2.445   1_455  S
O512        C523   1.293       .  A
O513       Zr519   2.447   1_455  S
O513        C524   1.294       .  A
O514      Zr2343   2.455       .  S
O514        C525   1.295       .  A
O515       Zr549   2.452       .  S
O515        C525   1.295       .  A
O516       Zr548   2.451       .  S
O516        C524   1.294       .  A
O517       Zr519   2.431   1_455  S
O517        C523   1.290       .  A
O518       Zr519   2.434   1_455  S
O518        C522   1.291   1_455  A
Zr519      O2338   2.456       .  S
Zr519      O2344   2.341       .  S
Zr519       O521   2.337   1_655  S
Zr519      O2353   2.349       .  S
Zr519       O527   2.347   1_655  S
O520      Zr2343   2.338       .  S
O520      Zr2370   2.344       .  S
O520       Zr549   2.344       .  S
O521       Zr547   2.338   1_455  S
O521       Zr548   2.340       .  S
C522        C904   1.475   1_655  S
C523        C874   1.473       .  S
C524        C734   1.487       .  S
C525        C714   1.492       .  S
H526        O527   0.966       .  S
O527       Zr546   2.340   1_455  S
O527       Zr548   2.341       .  S
H528        O529   0.966       .  S
O529      Zr2343   2.347       .  S
O529      Zr2371   2.348       .  S
O529       Zr549   2.341       .  S
O530       Zr546   2.440   1_455  S
O530        C553   1.292       .  A
O531       Zr547   2.444   1_455  S
O531        C554   1.293   1_455  A
O532       Zr548   2.448       .  S
O532        C555   1.293       .  A
O533       Zr549   2.423       .  S
O533        C556   1.287       .  A
O534       Zr549   2.440       .  S
O534        C557   1.293       .  A
O535       Zr548   2.444       .  S
O535        C558   1.295       .  A
O536       Zr550   2.433   1_455  S
O536        C559   1.289       .  A
O537      Zr2374   2.442       .  S
O537        C560   1.291       .  A
O538       Zr548   2.454       .  S
O538        C559   1.296       .  A
O539       Zr549   2.440       .  S
O539        C560   1.293       .  A
O540       Zr546   2.451   1_455  S
O540        C555   1.295       .  A
O541       Zr547   2.439   1_455  S
O541        C558   1.291       .  A
O542      Zr2371   2.438       .  S
O542        C557   1.291       .  A
O543      Zr2370   2.458       .  S
O543        C556   1.297       .  A
O544       Zr550   2.432   1_455  S
O544        C553   1.292       .  A
O545       Zr550   2.443       .  S
O545        C554   1.292       .  A
Zr546      O2367   2.445       .  S
Zr546      O2344   2.345       .  S
Zr546       O552   2.340   1_655  S
Zr546      O2388   2.348       .  S
Zr547      O2366   2.448       .  S
Zr547      O2353   2.347       .  S
Zr547      O2375   2.335       .  S
Zr547       O562   2.345   1_655  S
Zr548       O552   2.338       .  S
Zr548       O562   2.345       .  S
Zr549       O551   2.339       .  S
Zr549       O564   2.344       .  S
Zr550      O2361   2.443       .  S
Zr550      O2375   2.333       .  S
Zr550       O552   2.343   1_655  S
Zr550      O2388   2.341       .  S
Zr550       O562   2.343   1_655  S
O551      Zr2371   2.342       .  S
O551      Zr2374   2.338       .  S
C553        C887   1.482       .  S
C554        C897   1.477   1_655  S
C555        C774   1.490       .  S
C556        C784   1.493       .  S
C557        C757   1.491       .  S
C558        C764   1.492       .  S
C559        C744   1.500       .  S
C560        C724   1.494       .  S
H561        O562   0.966       .  S
H563        O564   0.966       .  S
O564      Zr2370   2.348       .  S
O564      Zr2374   2.341       .  S
O565       Zr601   2.426       .  S
O565        C576   1.287       .  A
O566       Zr600   2.443       .  S
O566        C577   1.293       .  A
O567       Zr573   2.432       .  S
O567        C578   1.291       .  A
O568      Zr1485   2.443   1_545  S
O568        C579   1.293       .  A
O569       Zr603   2.422       .  S
O569        C579   1.289       .  A
O570       Zr602   2.448       .  S
O570        C578   1.294       .  A
O571       Zr573   2.442       .  S
O571        C577   1.292       .  A
O572       Zr573   2.453       .  S
O572        C576   1.295       .  A
Zr573      O1480   2.430       .  S
Zr573      O1486   2.343       .  S
Zr573       O575   2.340       .  S
Zr573      O1495   2.339       .  S
Zr573       O581   2.346       .  S
O574      Zr1485   2.340   1_545  S
O574      Zr1512   2.334   1_545  S
O574       Zr603   2.334       .  S
O575       Zr601   2.333       .  S
O575       Zr602   2.342       .  S
C576       C1776   1.496       .  S
C577       C1766   1.477       .  S
C578        C684   1.475       .  S
C579        C674   1.473       .  S
H580        O581   0.966       .  S
O581       Zr600   2.332       .  S
O581       Zr602   2.344       .  S
H582        O583   0.967       .  S
O583      Zr1485   2.349   1_545  S
O583      Zr1513   2.349       .  S
O583       Zr603   2.352       .  S
O584       Zr600   2.423       .  S
O584        C607   1.287       .  A
O585       Zr601   2.416       .  S
O585        C608   1.285       .  A
O586       Zr602   2.420       .  S
O586        C609   1.286       .  A
O587       Zr603   2.449       .  S
O587        C610   1.294       .  A
O588       Zr603   2.434       .  S
O588        C611   1.291       .  A
O589       Zr602   2.424       .  S
O589        C612   1.288       .  A
O590       Zr604   2.432       .  S
O590        C613   1.290       .  A
O591      Zr1516   2.443       .  S
O591        C614   1.294       .  A
O592       Zr602   2.456       .  S
O592        C613   1.297       .  A
O593       Zr603   2.434       .  S
O593        C614   1.290       .  A
O594       Zr600   2.461       .  S
O594        C609   1.298       .  A
O595       Zr601   2.445       .  S
O595        C612   1.294       .  A
O596      Zr1513   2.458       .  S
O596        C611   1.297       .  A
O597      Zr1512   2.442   1_545  S
O597        C610   1.292       .  A
O598       Zr604   2.444       .  S
O598        C607   1.295       .  A
O599       Zr604   2.462       .  S
O599        C608   1.298       .  A
Zr600      O1509   2.438       .  S
Zr600      O1486   2.341       .  S
Zr600       O606   2.335       .  S
Zr600      O1530   2.349       .  S
Zr601      O1508   2.443       .  S
Zr601      O1495   2.338       .  S
Zr601      O1517   2.339       .  S
Zr601       O616   2.342       .  S
Zr602       O606   2.331       .  S
Zr602       O616   2.341       .  S
Zr603       O605   2.336       .  S
Zr603       O618   2.339       .  S
Zr604      O1503   2.433       .  S
Zr604      O1517   2.334       .  S
Zr604       O606   2.342       .  S
Zr604      O1530   2.344       .  S
Zr604       O616   2.339       .  S
O605      Zr1513   2.335       .  S
O605      Zr1516   2.329       .  S
C607       C1759   1.490       .  S
C608       C1749   1.497       .  S
C609        C747   1.498       .  S
C610        C737   1.488       .  S
C611        C717   1.487       .  S
C612        C727   1.489       .  S
C613        C694   1.496       .  S
C614        C707   1.487       .  S
H615        O616   0.966       .  S
H617        O618   0.966       .  S
O618      Zr1512   2.345   1_545  S
O618      Zr1516   2.346       .  S
O619       Zr655   2.444       .  S
O619        C630   1.292       .  A
O620       Zr654   2.414       .  S
O620        C631   1.284       .  A
O621        C632   1.297       .  A
O622       Zr627   2.433   1_556  S
O622        C633   1.291       .  A
O623       Zr657   2.456       .  S
O623        C633   1.297       .  A
O624       Zr656   2.431       .  S
O624        C632   1.289       .  A
O625       Zr627   2.450   1_556  S
O625        C631   1.296   1_556  A
O626       Zr627   2.441       .  S
O626        C630   1.293   1_554  A
Zr627       O628   2.341   1_554  S
Zr627       O637   2.350   1_554  S
O628       Zr654   2.334   1_556  S
O628       Zr657   2.336       .  S
O629       Zr656   2.338       .  S
C632        C767   1.495       .  S
C633        C777   1.484       .  S
H634        O635   0.966       .  S
O635       Zr656   2.342       .  S
H636        O637   0.966       .  S
O637       Zr655   2.337       .  S
O637       Zr657   2.341       .  S
O638       Zr654   2.432       .  S
O638        C661   1.290       .  A
O639       Zr655   2.449       .  S
O639        C662   1.294       .  A
O640       Zr656   2.448       .  S
O640        C663   1.294       .  A
O641       Zr657   2.439       .  S
O641        C664   1.290       .  A
O642       Zr657   2.436       .  S
O642        C665   1.293       .  A
O643       Zr656   2.456       .  S
O643        C666   1.296       .  A
O644        C667   1.295       .  A
O645       Zr658   2.427   1_556  S
O645        C668   1.288       .  A
O646       Zr656   2.428       .  S
O646        C667   1.288       .  A
O647       Zr657   2.458       .  S
O647        C668   1.298       .  A
O648        C663   1.294       .  A
O649        C666   1.289       .  A
O650       Zr655   2.430       .  S
O650        C665   1.290       .  A
O651       Zr654   2.438   1_556  S
O651        C664   1.292       .  A
O652       Zr658   2.450       .  S
O652        C661   1.295       .  A
O653       Zr658   2.432   1_556  S
O653        C662   1.291       .  A
Zr654       O672   2.332   1_554  S
Zr655       O659   2.333       .  S
Zr656       O660   2.343       .  S
Zr656       O670   2.345       .  S
Zr657       O659   2.337       .  S
Zr657       O672   2.342       .  S
Zr658       O659   2.341   1_554  S
Zr658       O672   2.347   1_554  S
C663        C687   1.482       .  S
C664        C697   1.494       .  S
C665        C704   1.481       .  S
C666        C677   1.480       .  S
C667        C754   1.491       .  S
C668        C787   1.494       .  S
H669        O670   0.966       .  S
H671        O672   0.966       .  S
C673        C674   1.400       .  A
C673        C678   1.398       .  A
C673        H680   1.084       .  S
C674        C675   1.411       .  A
C675        C676   1.397       .  A
C675       Br682   1.922       .  S
C676        C677   1.403       .  A
C676        H681   1.083       .  S
C677        C678   1.416       .  A
C678       Br679   1.917       .  S
C683        C684   1.402       .  A
C683        C688   1.400       .  A
C683        H690   1.084       .  S
C684        C685   1.408       .  A
C685        C686   1.401       .  A
C685       Br692   1.917       .  S
C686        C687   1.405       .  A
C686        H691   1.081       .  S
C687        C688   1.412       .  A
C688       Br689   1.919       .  S
C693        C694   1.405       .  A
C693        C698   1.398       .  A
C693        H700   1.083       .  S
C694        C695   1.419       .  A
C695        C696   1.404       .  A
C695       Br702   1.925       .  S
C696        C697   1.409       .  A
C696        H701   1.083       .  S
C697        C698   1.417       .  A
C698       Br699   1.926       .  S
C703        C704   1.402       .  A
C703        C708   1.395       .  A
C703        H710   1.084       .  S
C704        C705   1.414       .  A
C705        C706   1.401       .  A
C705       Br712   1.924       .  S
C706        C707   1.408       .  A
C706        H711   1.084       .  S
C707        C708   1.416       .  A
C708       Br709   1.922       .  S
C713        C714   1.407       .  A
C713        C718   1.406       .  A
C713        H720   1.078       .  S
C714        C715   1.412       .  A
C715        C716   1.399       .  A
C715       Br722   1.918       .  S
C716        C717   1.402       .  A
C716        H721   1.083       .  S
C717        C718   1.416       .  A
C718       Br719   1.923       .  S
C723        C724   1.408       .  A
C723        C728   1.399       .  A
C723        H730   1.083       .  S
C724        C725   1.417       .  A
C725        C726   1.398       .  A
C725       Br732   1.921       .  S
C726        C727   1.405       .  A
C726        H731   1.083       .  S
C727        C728   1.417       .  A
C728       Br729   1.926       .  S
C733        C734   1.405       .  A
C733        C738   1.402       .  A
C733        H740   1.084       .  S
C734        C735   1.413       .  A
C735        C736   1.403       .  A
C735       Br742   1.921       .  S
C736        C737   1.406       .  A
C736        H741   1.084       .  S
C737        C738   1.414       .  A
C738       Br739   1.921       .  S
C743        C744   1.407       .  A
C743        C748   1.400       .  A
C743        H750   1.082       .  S
C744        C745   1.420       .  A
C745        C746   1.399       .  A
C745       Br752   1.924       .  S
C746        C747   1.405       .  A
C746        H751   1.083       .  S
C747        C748   1.422       .  A
C748       Br749   1.928       .  S
C753        C754   1.407       .  A
C753        C758   1.401       .  A
C753        H760   1.083       .  S
C754        C755   1.418       .  A
C755        C756   1.398       .  A
C755       Br762   1.925       .  S
C756        C757   1.406       .  A
C756        H761   1.083       .  S
C757        C758   1.416       .  A
C758       Br759   1.924       .  S
C763        C764   1.405       .  A
C763        C768   1.399       .  A
C763        H770   1.083       .  S
C764        C765   1.416       .  A
C765        C766   1.400       .  A
C765       Br772   1.923       .  S
C766        C767   1.406       .  A
C766        H771   1.083       .  S
C767        C768   1.419       .  A
C768       Br769   1.922       .  S
C773        C774   1.406       .  A
C773        C778   1.403       .  A
C773        H780   1.084       .  S
C774        C775   1.415       .  A
C775        C776   1.398       .  A
C775       Br782   1.915       .  S
C776        C777   1.401       .  A
C776        H781   1.084       .  S
C777        C778   1.415       .  A
C778       Br779   1.922       .  S
C783        C784   1.405       .  A
C783        C788   1.400       .  A
C783        H790   1.083       .  S
C784        C785   1.420       .  A
C785        C786   1.398       .  A
C785       Br792   1.922       .  S
C786        C787   1.404       .  A
C786        H791   1.083       .  S
C787        C788   1.421       .  A
C788       Br789   1.924       .  S
C793        C798   1.402       .  A
C793        H800   1.083       .  S
C794        C795   1.413       .  A
C795        C796   1.404       .  A
C795       Br802   1.921       .  S
C796        C797   1.406       .  A
C796        H801   1.084       .  S
C798       Br799   1.924       .  S
C803        C804   1.406       .  A
C803        C808   1.402       .  A
C803        H810   1.084       .  S
C805        C806   1.402       .  A
C805       Br812   1.922       .  S
C806        H811   1.084       .  S
C807        C808   1.414       .  A
C808       Br809   1.922       .  S
C813        C814   1.407       .  A
C813        C818   1.397       .  A
C813        H820   1.083       .  S
C815        C816   1.400       .  A
C815       Br822   1.929       .  S
C816        H821   1.083       .  S
C817        C818   1.416       .  A
C818       Br819   1.924       .  S
C823        C824   1.406       .  A
C823        C828   1.405       .  A
C823        H830   1.083       .  S
C825        C826   1.399       .  A
C825       Br832   1.917       .  S
C826        H831   1.084       .  S
C827        C828   1.407       .  A
C828       Br829   1.919       .  S
C833       C1746   1.408       .  A
C833        C838   1.402       .  A
C833        H840   1.083       .  S
C834       C1745   1.407       .  A
C834        C835   1.422   1_545  A
C835        C836   1.401       .  A
C835       Br842   1.926       .  S
C836        C837   1.405   1_565  A
C836        H841   1.083       .  S
C837       C1520   1.499       .  S
C837       C1750   1.420       .  A
C838       C1749   1.422       .  A
C838       Br839   1.927       .  S
C843        C844   1.409       .  A
C843        C848   1.402       .  A
C843        H850   1.082       .  S
C844       C1757   1.422       .  A
C845       C1756   1.419       .  A
C845        C846   1.397       .  A
C845       Br852   1.926       .  S
C846       C1759   1.406       .  A
C846        H851   1.083       .  S
C847       C1519   1.496       .  S
C847       C1758   1.406       .  A
C847        C848   1.417       .  A
C848       Br849   1.926       .  S
C853       C1766   1.403       .  A
C853        C858   1.401       .  A
C853        H860   1.084       .  S
C854       C1489   1.493       .  S
C854       C1765   1.409       .  A
C854        C855   1.419   1_545  A
C855        C856   1.396       .  A
C855       Br862   1.923       .  S
C856        C857   1.402   1_565  A
C856        H861   1.083       .  S
C857       C1770   1.417       .  A
C858       C1769   1.412       .  A
C858       Br859   1.919       .  S
C863        C864   1.407       .  A
C863        C868   1.400       .  A
C863        H870   1.083       .  S
C864       C1488   1.494       .  S
C864       C1777   1.420   1_565  A
C865       C1776   1.420       .  A
C865        C866   1.399       .  A
C865       Br872   1.925       .  S
C866       C1779   1.405       .  A
C866        H871   1.083       .  S
C867       C1778   1.403   1_565  A
C867        C868   1.419       .  A
C868       Br869   1.926       .  S
C873        C874   1.405       .  A
C873        C878   1.399       .  A
C873        H880   1.084       .  S
C874       C2699   1.410   1_455  A
C875       C2698   1.411       .  A
C875        C876   1.395       .  A
C875       Br882   1.919       .  S
C876       C2701   1.401       .  A
C876        H881   1.084       .  S
C877       C2700   1.401   1_455  A
C877        C878   1.410       .  A
C878       Br879   1.918       .  S
C883        C884   1.408       .  A
C883        C888   1.402       .  A
C883        H890   1.083       .  S
C884       C2709   1.413   1_455  A
C885       C2708   1.411       .  A
C885        C886   1.398       .  A
C885       Br892   1.921       .  S
C886       C2711   1.402       .  A
C886        H891   1.082       .  S
C887       C2710   1.403   1_455  A
C887        C888   1.412       .  A
C888       Br889   1.923       .  S
C893        C894   1.406   1_455  A
C893        C898   1.403       .  A
C893        H900   1.083       .  S
C894       C2719   1.412       .  A
C895       C2718   1.413       .  A
C895        C896   1.399       .  A
C895       Br902   1.923       .  S
C896       C2721   1.405       .  A
C896        H901   1.084       .  S
C897       C2720   1.404   1_455  A
C897        C898   1.408       .  A
C898       Br899   1.922       .  S
C903        C904   1.403       .  A
C903        C908   1.401       .  A
C903        H910   1.084       .  S
C904       C2729   1.408   1_455  A
C905       C2728   1.409       .  A
C905        C906   1.402       .  A
C905       Br912   1.921       .  S
C906       C2731   1.405       .  A
C906        H911   1.084       .  S
C907       C2730   1.407   1_455  A
C907        C908   1.412       .  A
C908       Br909   1.920       .  S
O913       Zr949   2.431   1_655  S
O913        C924   1.291       .  A
O914       Zr948   2.445       .  S
O914        C925   1.294   1_455  A
O915       Zr921   2.443   1_454  S
O915        C926   1.293   1_554  A
O916      Zr2745   2.456       .  S
O916        C927   1.295       .  A
O917       Zr951   2.451       .  S
O917        C927   1.295       .  A
O918       Zr950   2.436   1_556  S
O918        C926   1.291       .  A
O919      Zr1377   2.427   1_655  S
O919        C925   1.289       .  A
O920       Zr921   2.444   1_554  S
O920        C924   1.292       .  A
Zr921      O2740   2.458       .  S
Zr921      O1375   2.433       .  S
Zr921      O3202   2.336       .  S
Zr921       O923   2.342   1_656  S
Zr921      O2755   2.336   1_556  S
Zr921      O1385   2.349   1_655  S
O922      Zr3201   2.340       .  S
O922      Zr2772   2.339       .  S
O922      Zr1407   2.339       .  S
O923       Zr949   2.338       .  S
O923       Zr950   2.341       .  S
C924       C1363   1.467       .  S
C925       C1333   1.483       .  S
C926       C1283   1.468       .  S
C927       C1260   1.493       .  S
H928        O929   0.967       .  S
O929      Zr1377   2.349       .  S
O929       Zr948   2.341       .  S
O929      Zr1406   2.342       .  S
H930        O931   0.967       .  S
O931      Zr2745   2.340   1_554  S
O931      Zr2773   2.348       .  S
O931       Zr951   2.344   1_554  S
O932        C955   1.290       .  A
O933        C956   1.296   1_655  A
O934      Zr1406   2.438       .  S
O934        C957   1.290       .  A
O935      Zr1407   2.432       .  S
O935        C958   1.289       .  A
O936       Zr951   2.416   1_554  S
O936        C959   1.286       .  A
O937       Zr950   2.437       .  S
O937        C960   1.291       .  A
O938       Zr952   2.450   1_556  S
O938        C961   1.294       .  A
O939      Zr2776   2.442       .  S
O939        C962   1.292       .  A
O940        C961   1.291   1_554  A
O941        C962   1.299   1_556  A
O942       Zr948   2.467       .  S
O942        C957   1.298       .  A
O943       Zr949   2.442       .  S
O943        C960   1.294       .  A
O944      Zr2773   2.453       .  S
O944        C959   1.297       .  A
O945      Zr2772   2.455       .  S
O945        C958   1.297       .  A
O946      Zr1408   2.447   1_455  S
O946        C955   1.294       .  A
O947       Zr952   2.440       .  S
O947        C956   1.293       .  A
Zr948      O2769   2.446   1_455  S
Zr948      O2746   2.343   1_455  S
Zr948      O1878   2.352   1_455  S
Zr949      O2768   2.442   1_455  S
Zr949      O2755   2.344   1_455  S
Zr949      O1865   2.338   1_455  S
Zr950      O1390   2.430   1_554  S
Zr950      O1385   2.345   1_554  S
Zr951      O1391   2.433       .  S
Zr951      O1378   2.335       .  S
Zr952      O2763   2.444   1_455  S
Zr952      O1402   2.448   1_554  S
Zr952      O2777   2.347   1_455  S
Zr952      O1410   2.335   1_554  S
Zr952      O3246   2.346   1_454  S
Zr952       O964   2.348       .  S
O953      Zr1861   2.343   1_565  S
O953      Zr2776   2.342       .  S
O954      Zr1408   2.336   1_455  S
C955       C1340   1.496       .  S
C956       C1350   1.482   1_455  S
C957       C1300   1.505       .  S
C958       C1290   1.500       .  S
C959       C1323   1.488       .  S
C960       C1313   1.491       .  S
C961       C1273   1.481       .  S
C962       C1250   1.498       .  S
H963        O964   0.967       .  S
H965        O966   0.967       .  S
O966      Zr1860   2.347       .  S
O966      Zr3232   2.345       .  S
O967      Zr1003   2.436       .  S
O967        C978   1.291       .  A
O968      Zr1002   2.438       .  S
O968        C979   1.293   1_455  A
O969       Zr975   2.445       .  S
O969        C980   1.294       .  A
O970      Zr2799   2.437       .  S
O970        C981   1.291       .  A
O971      Zr1005   2.446       .  S
O971        C981   1.295       .  A
O972      Zr1004   2.437       .  S
O972        C980   1.291       .  A
O973       Zr975   2.451   1_655  S
O973        C979   1.294       .  A
O974       Zr975   2.436   1_655  S
O974        C978   1.292       .  A
Zr975      O2794   2.438   1_455  S
Zr975      O2800   2.336   1_455  S
Zr975       O977   2.344       .  S
Zr975      O2809   2.346   1_455  S
Zr975       O983   2.340       .  S
O976      Zr2799   2.339       .  S
O976      Zr2826   2.342       .  S
O976      Zr1005   2.346       .  S
O977      Zr1003   2.346   1_455  S
O977      Zr1004   2.343       .  S
C978       C1360   1.464       .  S
C979       C1330   1.490       .  S
C980       C1190   1.483       .  S
C981       C1170   1.487       .  S
H982        O983   0.966       .  S
O983      Zr1002   2.339       .  S
O983      Zr1004   2.344       .  S
H984        O985   0.966       .  S
O985      Zr2799   2.347       .  S
O985      Zr2827   2.335       .  S
O985      Zr1005   2.337       .  S
O986      Zr1002   2.432       .  S
O986       C1009   1.290       .  A
O987      Zr1003   2.443   1_455  S
O987       C1010   1.293       .  A
O988      Zr1004   2.425       .  S
O988       C1011   1.289       .  A
O989      Zr1005   2.426       .  S
O989       C1012   1.288       .  A
O990      Zr1005   2.447       .  S
O990       C1013   1.295       .  A
O991      Zr1004   2.420       .  S
O991       C1014   1.289       .  A
O992      Zr1006   2.437       .  S
O992       C1015   1.291       .  A
O993      Zr2830   2.434       .  S
O993       C1016   1.289       .  A
O994      Zr1004   2.451       .  S
O994       C1015   1.295       .  A
O995      Zr1005   2.458       .  S
O995       C1016   1.298       .  A
O996      Zr1002   2.464       .  S
O996       C1011   1.298       .  A
O997      Zr1003   2.433   1_455  S
O997       C1014   1.289       .  A
O998      Zr2827   2.438       .  S
O998       C1013   1.290       .  A
O999      Zr2826   2.451       .  S
O999       C1012   1.295       .  A
O1000     Zr1006   2.442       .  S
O1000      C1009   1.295       .  A
O1001     Zr1006   2.461       .  S
O1001      C1010   1.296       .  A
Zr1002     O2823   2.458   1_455  S
Zr1002     O2800   2.339   1_455  S
Zr1002     O1008   2.342       .  S
Zr1002     O2844   2.350   1_455  S
Zr1003     O2822   2.437       .  S
Zr1003     O2809   2.338       .  S
Zr1003     O2831   2.336       .  S
Zr1003     O1018   2.338   1_655  S
Zr1004     O1008   2.337       .  S
Zr1004     O1018   2.341       .  S
Zr1005     O1007   2.338       .  S
Zr1005     O1020   2.341       .  S
Zr1006     O2817   2.446   1_455  S
Zr1006     O2831   2.337   1_455  S
Zr1006     O1008   2.345       .  S
Zr1006     O2844   2.345   1_455  S
Zr1006     O1018   2.340       .  S
O1007     Zr2827   2.336       .  S
O1007     Zr2830   2.341       .  S
C1009      C1343   1.493       .  S
C1010      C1353   1.484       .  S
C1011      C1230   1.484       .  S
C1012      C1240   1.492       .  S
C1013      C1213   1.497       .  S
C1014      C1220   1.483       .  S
C1015      C1200   1.490       .  S
C1016      C1180   1.501       .  S
H1017      O1018   0.965       .  S
H1019      O1020   0.966       .  S
O1020     Zr2826   2.344       .  S
O1020     Zr2830   2.342       .  S
O1021     Zr1057   2.420       .  S
O1021      C1032   1.287       .  A
O1022     Zr1056   2.421   1_545  S
O1022      C1033   1.287       .  A
O1023     Zr1029   2.433       .  S
O1023      C1034   1.291       .  A
O1024      C1035   1.292       .  A
O1025     Zr1059   2.440       .  S
O1025      C1035   1.292       .  A
O1026     Zr1058   2.452       .  S
O1026      C1034   1.295       .  A
O1027     Zr1029   2.445   1_545  S
O1027      C1033   1.294       .  A
O1028     Zr1029   2.453   1_545  S
O1028      C1032   1.296       .  A
Zr1029     O1031   2.343       .  S
Zr1029     O1037   2.341       .  S
O1030     Zr1059   2.333       .  S
O1031     Zr1057   2.340   1_565  S
O1031     Zr1058   2.340       .  S
C1034      C1140   1.482       .  S
C1035      C1130   1.479       .  S
H1036      O1037   0.966       .  S
O1037     Zr1056   2.341       .  S
O1037     Zr1058   2.337       .  S
H1038      O1039   0.966       .  S
O1039     Zr1059   2.341       .  S
O1040     Zr1056   2.428       .  S
O1040      C1063   1.288       .  A
O1041     Zr1057   2.423       .  S
O1041      C1064   1.287       .  A
O1042     Zr1058   2.430       .  S
O1042      C1065   1.289       .  A
O1043     Zr1059   2.452       .  S
O1043      C1066   1.295       .  A
O1044     Zr1059   2.438       .  S
O1044      C1067   1.291       .  A
O1045     Zr1058   2.430       .  S
O1045      C1068   1.288       .  A
O1046     Zr1060   2.435   1_565  S
O1046      C1069   1.291       .  A
O1047      C1070   1.295       .  A
O1048     Zr1058   2.447       .  S
O1048      C1069   1.295       .  A
O1049     Zr1059   2.421       .  S
O1049      C1070   1.289       .  A
O1050     Zr1056   2.450       .  S
O1050      C1065   1.295       .  A
O1051     Zr1057   2.470   1_565  S
O1051      C1068   1.299       .  A
O1052      C1067   1.294       .  A
O1053      C1066   1.289       .  A
O1054     Zr1060   2.445   1_565  S
O1054      C1063   1.295       .  A
O1055     Zr1060   2.455       .  S
O1055      C1064   1.297       .  A
Zr1056     O1062   2.332       .  S
Zr1057     O1072   2.339   1_545  S
Zr1058     O1062   2.335       .  S
Zr1058     O1072   2.345       .  S
Zr1059     O1061   2.343       .  S
Zr1059     O1074   2.343       .  S
Zr1060     O1062   2.341   1_545  S
Zr1060     O1072   2.343   1_545  S
C1065      C1203   1.489       .  S
C1066      C1193   1.486       .  S
C1067      C1173   1.489       .  S
C1068      C1183   1.504       .  S
C1069      C1150   1.488       .  S
C1070      C1163   1.474       .  S
H1071      O1072   0.966       .  S
H1073      O1074   0.966       .  S
O1075     Zr1111   2.463       .  S
O1075      C1086   1.296       .  A
O1076     Zr1110   2.433       .  S
O1076      C1087   1.289       .  A
O1077     Zr1539   2.433       .  S
O1077      C1088   1.292       .  A
O1078     Zr1083   2.448       .  S
O1078      C1089   1.294       .  A
O1079     Zr1113   2.449       .  S
O1079      C1089   1.294       .  A
O1080     Zr1112   2.415       .  S
O1080      C1088   1.285       .  A
O1081     Zr1083   2.452       .  S
O1081      C1087   1.296       .  A
O1082     Zr1083   2.445       .  S
O1082      C1086   1.293       .  A
Zr1083     O1533   2.461       .  S
Zr1083     O1084   2.347       .  S
Zr1083     O1541   2.343       .  S
Zr1083     O1093   2.354       .  S
Zr1083     O1547   2.339       .  S
O1084     Zr1110   2.338       .  S
O1084     Zr1113   2.345       .  S
O1085     Zr1539   2.343       .  S
O1085     Zr1567   2.341       .  S
O1085     Zr1112   2.339       .  S
C1086      C1736   1.481       .  S
C1087      C1726   1.499       .  S
C1088      C1223   1.482       .  S
C1089      C1233   1.486       .  S
H1090      O1091   0.966       .  S
O1091     Zr1539   2.340       .  S
O1091     Zr1566   2.345   1_554  S
O1091     Zr1112   2.340       .  S
H1092      O1093   0.966       .  S
O1093     Zr1111   2.342       .  S
O1093     Zr1113   2.348       .  S
O1094     Zr1110   2.438       .  S
O1094      C1117   1.292       .  A
O1095     Zr1111   2.451       .  S
O1095      C1118   1.294       .  A
O1096     Zr1112   2.449       .  S
O1096      C1119   1.295       .  A
O1097     Zr1113   2.436       .  S
O1097      C1120   1.291       .  A
O1098     Zr1113   2.432       .  S
O1098      C1121   1.291       .  A
O1099     Zr1112   2.444       .  S
O1099      C1122   1.293       .  A
O1100     Zr1570   2.451       .  S
O1100      C1123   1.296       .  A
O1101     Zr1114   2.432       .  S
O1101      C1124   1.289       .  A
O1102     Zr1112   2.423       .  S
O1102      C1123   1.287       .  A
O1103     Zr1113   2.455       .  S
O1103      C1124   1.296       .  A
O1104     Zr1566   2.426   1_554  S
O1104      C1119   1.289       .  A
O1105     Zr1567   2.439       .  S
O1105      C1122   1.292       .  A
O1106     Zr1111   2.434       .  S
O1106      C1121   1.291       .  A
O1107     Zr1110   2.443       .  S
O1107      C1120   1.294       .  A
O1108     Zr1114   2.457       .  S
O1108      C1117   1.295       .  A
O1109     Zr1114   2.449       .  S
O1109      C1118   1.294       .  A
Zr1110     O1560   2.437       .  S
Zr1110     O1547   2.342       .  S
Zr1110     O1572   2.338       .  S
Zr1110     O1128   2.340       .  S
Zr1111     O1561   2.419       .  S
Zr1111     O1541   2.343       .  S
Zr1111     O1115   2.338       .  S
Zr1111     O1582   2.352       .  S
Zr1112     O1116   2.339       .  S
Zr1112     O1126   2.336       .  S
Zr1113     O1115   2.336       .  S
Zr1113     O1128   2.344       .  S
Zr1114     O1556   2.438       .  S
Zr1114     O1115   2.344       .  S
Zr1114     O1572   2.336       .  S
Zr1114     O1128   2.344       .  S
Zr1114     O1582   2.347       .  S
O1116     Zr1566   2.342   1_554  S
O1116     Zr1570   2.340       .  S
C1117      C1709   1.483       .  S
C1118      C1719   1.482       .  S
C1119      C1143   1.482       .  S
C1120      C1153   1.489       .  S
C1121      C1160   1.474       .  S
C1122      C1133   1.483       .  S
C1123      C1210   1.495       .  S
C1124      C1243   1.497       .  S
H1125      O1126   0.966       .  S
O1126     Zr1567   2.341       .  S
O1126     Zr1570   2.342       .  S
H1127      O1128   0.966       .  S
C1129      C1130   1.403       .  A
C1129      C1134   1.397       .  A
C1129      H1136   1.084       .  S
C1130      C1131   1.412       .  A
C1131      C1132   1.401       .  A
C1131     Br1138   1.922       .  S
C1132      C1133   1.407       .  A
C1132      H1137   1.083       .  S
C1133      C1134   1.413       .  A
C1134     Br1135   1.921       .  S
C1139      C1140   1.404       .  A
C1139      C1144   1.400       .  A
C1139      H1146   1.084       .  S
C1140      C1141   1.411       .  A
C1141      C1142   1.399       .  A
C1141     Br1148   1.919       .  S
C1142      C1143   1.403       .  A
C1142      H1147   1.083       .  S
C1143      C1144   1.415       .  A
C1144     Br1145   1.924       .  S
C1149      C1150   1.404       .  A
C1149      C1154   1.398       .  A
C1149      H1156   1.084       .  S
C1150      C1151   1.416       .  A
C1151      C1152   1.399       .  A
C1151     Br1158   1.921       .  S
C1152      C1153   1.406       .  A
C1152      H1157   1.084       .  S
C1153      C1154   1.416       .  A
C1154     Br1155   1.917       .  S
C1159      C1160   1.403       .  A
C1159      C1164   1.396       .  A
C1159      H1166   1.084       .  S
C1160      C1161   1.411       .  A
C1161      C1162   1.398       .  A
C1161     Br1168   1.920       .  S
C1162      C1163   1.403       .  A
C1162      H1167   1.084       .  S
C1163      C1164   1.412       .  A
C1164     Br1165   1.923       .  S
C1169      C1170   1.406       .  A
C1169      C1174   1.400       .  A
C1169      H1176   1.083       .  S
C1170      C1171   1.414       .  A
C1171      C1172   1.397       .  A
C1171     Br1178   1.923       .  S
C1172      C1173   1.404       .  A
C1172      H1177   1.078       .  S
C1173      C1174   1.415       .  A
C1174     Br1175   1.921       .  S
C1179      C1180   1.405       .  A
C1179      C1184   1.400       .  A
C1179      H1186   1.083       .  S
C1180      C1181   1.421       .  A
C1181      C1182   1.404       .  A
C1181     Br1188   1.925       .  S
C1182      C1183   1.408       .  A
C1182      H1187   1.083       .  S
C1183      C1184   1.422       .  A
C1184     Br1185   1.924       .  S
C1189      C1190   1.403       .  A
C1189      C1194   1.399       .  A
C1189      H1196   1.084       .  S
C1190      C1191   1.412       .  A
C1191      C1192   1.399       .  A
C1191     Br1198   1.920       .  S
C1192      C1193   1.405       .  A
C1192      H1197   1.084       .  S
C1193      C1194   1.416       .  A
C1194     Br1195   1.917       .  S
C1199      C1200   1.407       .  A
C1199      C1204   1.402       .  A
C1199      H1206   1.083       .  S
C1200      C1201   1.416       .  A
C1201      C1202   1.398       .  A
C1201     Br1208   1.923       .  S
C1202      C1203   1.403       .  A
C1202      H1207   1.079       .  S
C1203      C1204   1.416       .  A
C1204     Br1205   1.924       .  S
C1209      C1210   1.405       .  A
C1209      C1214   1.397       .  A
C1209      H1216   1.083       .  S
C1210      C1211   1.421       .  A
C1211      C1212   1.402       .  A
C1211     Br1218   1.927       .  S
C1212      C1213   1.408       .  A
C1212      H1217   1.083       .  S
C1213      C1214   1.419       .  A
C1214     Br1215   1.924       .  S
C1219      C1220   1.406       .  A
C1219      C1224   1.394       .  A
C1219      H1226   1.083       .  S
C1220      C1221   1.414       .  A
C1221      C1222   1.394       .  A
C1221     Br1228   1.923       .  S
C1222      C1223   1.405       .  A
C1222      H1227   1.083       .  S
C1223      C1224   1.418       .  A
C1224     Br1225   1.928       .  S
C1229      C1230   1.401       .  A
C1229      C1234   1.397       .  A
C1229      H1236   1.082       .  S
C1230      C1231   1.416       .  A
C1231      C1232   1.404       .  A
C1231     Br1238   1.922       .  S
C1232      C1233   1.407       .  A
C1232      H1237   1.084       .  S
C1233      C1234   1.412       .  A
C1234     Br1235   1.914       .  S
C1239      C1240   1.405       .  A
C1239      C1244   1.402       .  A
C1239      H1246   1.083       .  S
C1240      C1241   1.418       .  A
C1241      C1242   1.398       .  A
C1241     Br1248   1.926       .  S
C1242      C1243   1.405       .  A
C1242      H1247   1.080       .  S
C1243      C1244   1.421       .  A
C1244     Br1245   1.923       .  S
C1249      C1706   1.404       .  A
C1249      C1254   1.401       .  A
C1249      H1256   1.083       .  S
C1250      C1705   1.406   1_554  A
C1250      C1251   1.418       .  A
C1251      C1252   1.407       .  A
C1251     Br1258   1.923       .  S
C1252      C1253   1.407   1_554  A
C1252      H1257   1.084       .  S
C1253      C1573   1.500       .  S
C1253      C1710   1.416       .  A
C1254      C1709   1.412       .  A
C1254     Br1255   1.921       .  S
C1259      C1260   1.408   1_554  A
C1259      C1264   1.405       .  A
C1259      H1266   1.084       .  S
C1260      C1717   1.414       .  A
C1261      C1716   1.410       .  A
C1261      C1262   1.403       .  A
C1261     Br1268   1.921       .  S
C1262      C1719   1.406       .  A
C1262      H1267   1.083       .  S
C1263      C1574   1.490       .  S
C1263      C1718   1.405   1_554  A
C1263      C1264   1.415       .  A
C1264     Br1265   1.922       .  S
C1269      C1270   1.403       .  A
C1269      C1274   1.400       .  A
C1269      H1276   1.082       .  S
C1270      C1543   1.483       .  S
C1270      C1727   1.415   1_556  A
C1271      C1726   1.420       .  A
C1271      C1272   1.403       .  A
C1271     Br1278   1.925       .  S
C1272      C1729   1.408       .  A
C1272      H1277   1.083       .  S
C1273      C1728   1.404   1_556  A
C1273      C1274   1.411       .  A
C1274     Br1275   1.918       .  S
C1279      C1280   1.404   1_556  A
C1279      C1284   1.401       .  A
C1279      H1286   1.084       .  S
C1280      C1542   1.475       .  S
C1280      C1737   1.409       .  A
C1281      C1736   1.410       .  A
C1281      C1282   1.403       .  A
C1281     Br1288   1.917       .  S
C1282      C1739   1.403       .  A
C1282      H1287   1.084       .  S
C1283      C1738   1.400   1_556  A
C1283      C1284   1.408       .  A
C1284     Br1285   1.920       .  S
C1289      C1294   1.400       .  A
C1289      H1296   1.083       .  S
C1290      C1291   1.421       .  A
C1291      C1292   1.399       .  A
C1291     Br1298   1.926       .  S
C1292      C1293   1.406       .  A
C1292      H1297   1.083       .  S
C1294     Br1295   1.925       .  S
C1299      C1300   1.409       .  A
C1299      C1304   1.403       .  A
C1299      H1306   1.083       .  S
C1301      C1302   1.397   1_545  A
C1301     Br1308   1.927       .  S
C1302      H1307   1.083   1_565  S
C1303      C1304   1.420       .  A
C1304     Br1305   1.927       .  S
C1309      C1314   1.397       .  A
C1309      H1316   1.083       .  S
C1310      C1311   1.420       .  A
C1311      C1312   1.399       .  A
C1311     Br1318   1.925       .  S
C1312      C1313   1.404       .  A
C1312      H1317   1.083       .  S
C1314     Br1315   1.925       .  S
C1319      C1320   1.408       .  A
C1319      C1324   1.402       .  A
C1319      H1326   1.083       .  S
C1321      C1322   1.400       .  A
C1321     Br1328   1.925       .  S
C1322      H1327   1.083       .  S
C1323      C1324   1.419       .  A
C1324     Br1325   1.927       .  S
C1329      C1330   1.406   1_455  A
C1329      C1334   1.399       .  A
C1329      H1336   1.083       .  S
C1330      C3155   1.415       .  A
C1331      C3154   1.414       .  A
C1331      C1332   1.399       .  A
C1331     Br1338   1.922       .  S
C1332      C3157   1.404       .  A
C1332      H1337   1.084       .  S
C1333      C3156   1.404       .  A
C1333      C1334   1.414   1_655  A
C1334     Br1335   1.925       .  S
C1339      C1340   1.408       .  A
C1339      C1344   1.401       .  A
C1339      H1346   1.081       .  S
C1340      C3165   1.417   1_455  A
C1341      C3164   1.414       .  A
C1341      C1342   1.400       .  A
C1341     Br1348   1.920       .  S
C1342      C3167   1.405       .  A
C1342      H1347   1.083       .  S
C1343      C3166   1.406       .  A
C1343      C1344   1.418       .  A
C1344     Br1345   1.924       .  S
C1349      C1350   1.404   1_455  A
C1349      C1354   1.403       .  A
C1349      H1356   1.084       .  S
C1350      C3175   1.410       .  A
C1351      C3174   1.411       .  A
C1351      C1352   1.403       .  A
C1351     Br1358   1.919       .  S
C1352      C3177   1.406       .  A
C1352      H1357   1.083       .  S
C1353      C3176   1.405   1_455  A
C1353      C1354   1.413       .  A
C1354     Br1355   1.920       .  S
C1359      C1360   1.399   1_455  A
C1359      C1364   1.393       .  A
C1359      H1366   1.084       .  S
C1360      C3185   1.410       .  A
C1361      C3184   1.408       .  A
C1361      C1362   1.399       .  A
C1361     Br1368   1.921       .  S
C1362      C3187   1.403       .  A
C1362      H1367   1.084       .  S
C1363      C3186   1.405       .  A
C1363      C1364   1.407   1_655  A
C1364     Br1365   1.918       .  S
O1369     Zr1405   2.448       .  S
O1369      C1380   1.294   1_455  A
O1370     Zr1404   2.444       .  S
O1370      C1381   1.294       .  A
O1371     Zr1377   2.451       .  S
O1371      C1382   1.293       .  A
O1372     Zr3201   2.450       .  S
O1372      C1383   1.294       .  A
O1373     Zr1407   2.439       .  S
O1373      C1383   1.292       .  A
O1374     Zr1406   2.450       .  S
O1374      C1382   1.294       .  A
O1375      C1381   1.291   1_655  A
O1376     Zr1377   2.428   1_655  S
O1376      C1380   1.290       .  A
Zr1377     O3196   2.454   1_455  S
Zr1377     O2746   2.335   1_455  S
Zr1377     O1379   2.346       .  S
Zr1377     O3211   2.340   1_455  S
O1378     Zr2745   2.338       .  S
O1378     Zr3228   2.343       .  S
O1379     Zr1405   2.342       .  S
O1379     Zr1406   2.341       .  S
C1380      C1819   1.470       .  S
C1381      C1789   1.481       .  S
C1382      C1739   1.479       .  S
C1383      C1716   1.479       .  S
H1384      O1385   0.966       .  S
O1385     Zr1404   2.343       .  S
H1386      O1387   0.967       .  S
O1387     Zr3201   2.342       .  S
O1387     Zr3229   2.342       .  S
O1387     Zr1407   2.345       .  S
O1388      C1411   1.288   1_655  A
O1389      C1412   1.291       .  A
O1390      C1413   1.288       .  A
O1391      C1414   1.289       .  A
O1392     Zr1407   2.429       .  S
O1392      C1415   1.288       .  A
O1393     Zr1406   2.437       .  S
O1393      C1416   1.291       .  A
O1394     Zr1408   2.441   1_455  S
O1394      C1417   1.291       .  A
O1395     Zr3232   2.454       .  S
O1395      C1418   1.295       .  A
O1396      C1417   1.296       .  A
O1397      C1418   1.293       .  A
O1398     Zr1404   2.446       .  S
O1398      C1413   1.295       .  A
O1399     Zr1405   2.455       .  S
O1399      C1416   1.295       .  A
O1400     Zr3229   2.457       .  S
O1400      C1415   1.297       .  A
O1401     Zr3228   2.449       .  S
O1401      C1414   1.295       .  A
O1402      C1411   1.295       .  A
O1403     Zr1408   2.442   1_455  S
O1403      C1412   1.294       .  A
Zr1404     O3225   2.455   1_455  S
Zr1404     O3202   2.339   1_455  S
Zr1404     O2334   2.346   1_455  S
Zr1405     O3224   2.445   1_455  S
Zr1405     O3211   2.348   1_455  S
Zr1405     O2321   2.345   1_455  S
Zr1408     O3219   2.442       .  S
Zr1408     O3233   2.342       .  S
Zr1408     O2790   2.349       .  S
Zr1408     O1420   2.346   1_655  S
O1409     Zr2317   2.341       .  S
O1409     Zr3232   2.339       .  S
C1411      C1796   1.495       .  S
C1412      C1806   1.488       .  S
C1413      C1756   1.493       .  S
C1414      C1746   1.499       .  S
C1415      C1779   1.497       .  S
C1416      C1769   1.480       .  S
C1417      C1729   1.501       .  S
C1418      C1706   1.484       .  S
H1419      O1420   0.967       .  S
H1421      O1422   0.967       .  S
O1422     Zr2316   2.345   1_565  S
O1422     Zr2776   2.344   1_556  S
O1423     Zr1459   2.425   1_655  S
O1423      C1434   1.289       .  A
O1424     Zr1458   2.440       .  S
O1424      C1435   1.293       .  A
O1425     Zr1431   2.450   1_455  S
O1425      C1436   1.295       .  A
O1426     Zr3255   2.436       .  S
O1426      C1437   1.291       .  A
O1427     Zr1461   2.452       .  S
O1427      C1437   1.295       .  A
O1428     Zr1460   2.433       .  S
O1428      C1436   1.291       .  A
O1429     Zr1431   2.439       .  S
O1429      C1435   1.291       .  A
O1430     Zr1431   2.441       .  S
O1430      C1434   1.292       .  A
Zr1431     O3250   2.433       .  S
Zr1431     O3256   2.345       .  S
Zr1431     O1433   2.341   1_655  S
Zr1431     O3265   2.344       .  S
Zr1431     O1439   2.338   1_655  S
O1432     Zr3255   2.344       .  S
O1432     Zr3282   2.338       .  S
O1432     Zr1461   2.345       .  S
O1433     Zr1459   2.336       .  S
O1433     Zr1460   2.341       .  S
C1434      C1816   1.466       .  S
C1435      C1786   1.484       .  S
C1436      C1646   1.481       .  S
C1437      C1626   1.486       .  S
H1438      O1439   0.966       .  S
O1439     Zr1458   2.340   1_455  S
O1439     Zr1460   2.348       .  S
H1440      O1441   0.966       .  S
O1441     Zr3255   2.345       .  S
O1441     Zr3283   2.337       .  S
O1441     Zr1461   2.342       .  S
O1442     Zr1458   2.424   1_455  S
O1442      C1465   1.287       .  A
O1443     Zr1459   2.419       .  S
O1443      C1466   1.287       .  A
O1444     Zr1460   2.426       .  S
O1444      C1467   1.289       .  A
O1445     Zr1461   2.431       .  S
O1445      C1468   1.289       .  A
O1446     Zr1461   2.436       .  S
O1446      C1469   1.293       .  A
O1447     Zr1460   2.454       .  S
O1447      C1470   1.296       .  A
O1448     Zr1462   2.442       .  S
O1448      C1471   1.293       .  A
O1449     Zr3286   2.430       .  S
O1449      C1472   1.289       .  A
O1450     Zr1460   2.451       .  S
O1450      C1471   1.294       .  A
O1451     Zr1461   2.450       .  S
O1451      C1472   1.296       .  A
O1452     Zr1458   2.454   1_455  S
O1452      C1467   1.296       .  A
O1453     Zr1459   2.437       .  S
O1453      C1470   1.290       .  A
O1454     Zr3283   2.429       .  S
O1454      C1469   1.288       .  A
O1455     Zr3282   2.473       .  S
O1455      C1468   1.300       .  A
O1456     Zr1462   2.457       .  S
O1456      C1465   1.298       .  A
O1457     Zr1462   2.460       .  S
O1457      C1466   1.298       .  A
Zr1458     O3279   2.457       .  S
Zr1458     O3256   2.336       .  S
Zr1458     O1464   2.345   1_655  S
Zr1458     O3300   2.345       .  S
Zr1459     O3278   2.433   1_455  S
Zr1459     O3265   2.340   1_455  S
Zr1459     O3287   2.336   1_455  S
Zr1459     O1474   2.344       .  S
Zr1460     O1464   2.340       .  S
Zr1460     O1474   2.335       .  S
Zr1461     O1463   2.338       .  S
Zr1461     O1476   2.340       .  S
Zr1462     O3273   2.447   1_455  S
Zr1462     O3287   2.337   1_455  S
Zr1462     O1464   2.339       .  S
Zr1462     O3300   2.344   1_455  S
Zr1462     O1474   2.346       .  S
O1463     Zr3283   2.337       .  S
O1463     Zr3286   2.342       .  S
C1465      C1799   1.495       .  S
C1466      C1809   1.489       .  S
C1467      C1686   1.491       .  S
C1468      C1696   1.503       .  S
C1469      C1669   1.492       .  S
C1470      C1676   1.496       .  S
C1471      C1656   1.485       .  S
C1472      C1636   1.494       .  S
H1473      O1474   0.966       .  S
H1475      O1476   0.966       .  S
O1476     Zr3282   2.343       .  S
O1476     Zr3286   2.343       .  S
O1477     Zr1513   2.425   1_565  S
O1477      C1488   1.288       .  A
O1478     Zr1512   2.435   1_545  S
O1478      C1489   1.290       .  A
O1479     Zr1485   2.437       .  S
O1479      C1490   1.292       .  A
O1480      C1491   1.291       .  A
O1481     Zr1515   2.442       .  S
O1481      C1491   1.293       .  A
O1482     Zr1514   2.460       .  S
O1482      C1490   1.296       .  A
O1483     Zr1485   2.451   1_545  S
O1483      C1489   1.295       .  A
O1484     Zr1485   2.455       .  S
O1484      C1488   1.296       .  A
Zr1485     O1487   2.343       .  S
Zr1485     O1493   2.352       .  S
O1486     Zr1515   2.342       .  S
O1487     Zr1513   2.342   1_565  S
O1487     Zr1514   2.341       .  S
C1490      C1596   1.485       .  S
C1491      C1586   1.481       .  S
H1492      O1493   0.967       .  S
O1493     Zr1512   2.343       .  S
O1493     Zr1514   2.347       .  S
H1494      O1495   0.966       .  S
O1495     Zr1515   2.346       .  S
O1496     Zr1512   2.436       .  S
O1496      C1519   1.290       .  A
O1497     Zr1513   2.436       .  S
O1497      C1520   1.290       .  A
O1498     Zr1514   2.446       .  S
O1498      C1521   1.293       .  A
O1499     Zr1515   2.448       .  S
O1499      C1522   1.295       .  A
O1500     Zr1515   2.444       .  S
O1500      C1523   1.293       .  A
O1501     Zr1514   2.436       .  S
O1501      C1524   1.290       .  A
O1502     Zr1516   2.428   1_565  S
O1502      C1525   1.288       .  A
O1503      C1526   1.291       .  A
O1504     Zr1514   2.449       .  S
O1504      C1525   1.295       .  A
O1505     Zr1515   2.442       .  S
O1505      C1526   1.293       .  A
O1506     Zr1512   2.449       .  S
O1506      C1521   1.295       .  A
O1507     Zr1513   2.459   1_565  S
O1507      C1524   1.297       .  A
O1508      C1523   1.294       .  A
O1509      C1522   1.292       .  A
O1510     Zr1516   2.442   1_565  S
O1510      C1519   1.294       .  A
O1511     Zr1516   2.454       .  S
O1511      C1520   1.296       .  A
Zr1512     O1518   2.333       .  S
Zr1513     O1528   2.337   1_545  S
Zr1514     O1518   2.335       .  S
Zr1514     O1528   2.351       .  S
Zr1515     O1517   2.338       .  S
Zr1515     O1530   2.340       .  S
Zr1516     O1518   2.342   1_545  S
Zr1516     O1528   2.343   1_545  S
C1521      C1659   1.487       .  S
C1522      C1649   1.482       .  S
C1523      C1629   1.486       .  S
C1524      C1639   1.497       .  S
C1525      C1606   1.493       .  S
C1526      C1619   1.475       .  S
H1527      O1528   0.966       .  S
H1529      O1530   0.966       .  S
O1531     Zr1567   2.449   1_556  S
O1531      C1542   1.293   1_556  A
O1532     Zr1566   2.432       .  S
O1532      C1543   1.290       .  A
O1533      C1544   1.297       .  A
O1534     Zr1539   2.430   1_556  S
O1534      C1545   1.289       .  A
O1535     Zr1569   2.460       .  S
O1535      C1545   1.297       .  A
O1536     Zr1568   2.433       .  S
O1536      C1544   1.289       .  A
O1537     Zr1539   2.460   1_556  S
O1537      C1543   1.297       .  A
O1538     Zr1539   2.447       .  S
O1538      C1542   1.293       .  A
Zr1539     O1540   2.341   1_554  S
Zr1539     O1549   2.345   1_554  S
O1540     Zr1566   2.342       .  S
O1540     Zr1569   2.339       .  S
O1541     Zr1568   2.342       .  S
C1544      C1679   1.498       .  S
C1545      C1689   1.495       .  S
H1546      O1547   0.965       .  S
O1547     Zr1568   2.340       .  S
H1548      O1549   0.966       .  S
O1549     Zr1567   2.342   1_556  S
O1549     Zr1569   2.341       .  S
O1550     Zr1566   2.453       .  S
O1550      C1573   1.295       .  A
O1551     Zr1567   2.443       .  S
O1551      C1574   1.293       .  A
O1552     Zr1568   2.456       .  S
O1552      C1575   1.296       .  A
O1553     Zr1569   2.428       .  S
O1553      C1576   1.288       .  A
O1554     Zr1569   2.426       .  S
O1554      C1577   1.291       .  A
O1555     Zr1568   2.454       .  S
O1555      C1578   1.296       .  A
O1556      C1579   1.293       .  A
O1557     Zr1570   2.440   1_556  S
O1557      C1580   1.292       .  A
O1558     Zr1568   2.442       .  S
O1558      C1579   1.291       .  A
O1559     Zr1569   2.455       .  S
O1559      C1580   1.297       .  A
O1560      C1575   1.291       .  A
O1561      C1578   1.287       .  A
O1562     Zr1567   2.437   1_556  S
O1562      C1577   1.291       .  A
O1563     Zr1566   2.436       .  S
O1563      C1576   1.293       .  A
O1564     Zr1570   2.465       .  S
O1564      C1573   1.298   1_554  A
O1565     Zr1570   2.458       .  S
O1565      C1574   1.297       .  A
Zr1566     O1584   2.334       .  S
Zr1567     O1571   2.341   1_554  S
Zr1568     O1572   2.338       .  S
Zr1568     O1582   2.342       .  S
Zr1569     O1571   2.342       .  S
Zr1569     O1584   2.341       .  S
Zr1570     O1571   2.345   1_554  S
Zr1570     O1584   2.346   1_554  S
C1575      C1599   1.487       .  S
C1576      C1609   1.492       .  S
C1577      C1616   1.473       .  S
C1578      C1589   1.482       .  S
C1579      C1666   1.496       .  S
C1580      C1699   1.498       .  S
H1581      O1582   0.966       .  S
H1583      O1584   0.966       .  S
C1585      C1586   1.405       .  A
C1585      C1590   1.398       .  A
C1585      H1592   1.084       .  S
C1586      C1587   1.412       .  A
C1587      C1588   1.396       .  A
C1587     Br1594   1.921       .  S
C1588      C1589   1.404       .  A
C1588      H1593   1.083       .  S
C1589      C1590   1.417       .  A
C1590     Br1591   1.924       .  S
C1595      C1596   1.405       .  A
C1595      C1600   1.401       .  A
C1595      H1602   1.084       .  S
C1596      C1597   1.411       .  A
C1597      C1598   1.403       .  A
C1597     Br1604   1.922       .  S
C1598      C1599   1.405       .  A
C1598      H1603   1.081       .  S
C1599      C1600   1.415       .  A
C1600     Br1601   1.923       .  S
C1605      C1606   1.406       .  A
C1605      C1610   1.397       .  A
C1605      H1612   1.082       .  S
C1606      C1607   1.419       .  A
C1607      C1608   1.398       .  A
C1607     Br1614   1.925       .  S
C1608      C1609   1.407       .  A
C1608      H1613   1.083       .  S
C1609      C1610   1.419       .  A
C1610     Br1611   1.926       .  S
C1615      C1616   1.403       .  A
C1615      C1620   1.395       .  A
C1615      H1622   1.084       .  S
C1616      C1617   1.411       .  A
C1617      C1618   1.399       .  A
C1617     Br1624   1.922       .  S
C1618      C1619   1.405       .  A
C1618      H1623   1.084       .  S
C1619      C1620   1.410       .  A
C1620     Br1621   1.920       .  S
C1625      C1626   1.405       .  A
C1625      C1630   1.401       .  A
C1625      H1632   1.083       .  S
C1626      C1627   1.415       .  A
C1627      C1628   1.400       .  A
C1627     Br1634   1.924       .  S
C1628      C1629   1.405       .  A
C1628      H1633   1.082       .  S
C1629      C1630   1.413       .  A
C1630     Br1631   1.922       .  S
C1635      C1636   1.405       .  A
C1635      C1640   1.398       .  A
C1635      H1642   1.083       .  S
C1636      C1637   1.419       .  A
C1637      C1638   1.402       .  A
C1637     Br1644   1.923       .  S
C1638      C1639   1.407       .  A
C1638      H1643   1.083       .  S
C1639      C1640   1.420       .  A
C1640     Br1641   1.923       .  S
C1645      C1646   1.405       .  A
C1645      C1650   1.402       .  A
C1645      H1652   1.084       .  S
C1646      C1647   1.413       .  A
C1647      C1648   1.398       .  A
C1647     Br1654   1.921       .  S
C1648      C1649   1.402       .  A
C1648      H1653   1.084       .  S
C1649      C1650   1.414       .  A
C1650     Br1651   1.919       .  S
C1655      C1656   1.407       .  A
C1655      C1660   1.406       .  A
C1655      H1662   1.084       .  S
C1656      C1657   1.411       .  A
C1657      C1658   1.398       .  A
C1657     Br1664   1.920       .  S
C1658      C1659   1.402       .  A
C1658      H1663   1.082       .  S
C1659      C1660   1.415       .  A
C1660     Br1661   1.919       .  S
C1665      C1666   1.409       .  A
C1665      C1670   1.400       .  A
C1665      H1672   1.083       .  S
C1666      C1667   1.418       .  A
C1667      C1668   1.398       .  A
C1667     Br1674   1.925       .  S
C1668      C1669   1.406       .  A
C1668      H1673   1.083       .  S
C1669      C1670   1.418       .  A
C1670     Br1671   1.928       .  S
C1675      C1676   1.405       .  A
C1675      C1680   1.400       .  A
C1675      H1682   1.083       .  S
C1676      C1677   1.418       .  A
C1677      C1678   1.403       .  A
C1677     Br1684   1.924       .  S
C1678      C1679   1.407       .  A
C1678      H1683   1.083       .  S
C1679      C1680   1.421       .  A
C1680     Br1681   1.923       .  S
C1685      C1686   1.404       .  A
C1685      C1690   1.398       .  A
C1685      H1692   1.083       .  S
C1686      C1687   1.418       .  A
C1687      C1688   1.402       .  A
C1687     Br1694   1.926       .  S
C1688      C1689   1.408       .  A
C1688      H1693   1.083       .  S
C1689      C1690   1.420       .  A
C1690     Br1691   1.924       .  S
C1695      C1696   1.407       .  A
C1695      C1700   1.403       .  A
C1695      H1702   1.081       .  S
C1696      C1697   1.422       .  A
C1697      C1698   1.402       .  A
C1697     Br1704   1.924       .  S
C1698      C1699   1.406       .  A
C1698      H1703   1.083       .  S
C1699      C1700   1.418       .  A
C1700     Br1701   1.924       .  S
C1705      C1710   1.406       .  A
C1705      H1712   1.083       .  S
C1706      C1707   1.412       .  A
C1707      C1708   1.404       .  A
C1707     Br1714   1.921       .  S
C1708      C1709   1.405       .  A
C1708      H1713   1.084       .  S
C1710     Br1711   1.920       .  S
C1715      C1716   1.404       .  A
C1715      C1720   1.401       .  A
C1715      H1722   1.084       .  S
C1717      C1718   1.402       .  A
C1717     Br1724   1.920       .  S
C1718      H1723   1.084       .  S
C1719      C1720   1.411       .  A
C1720     Br1721   1.920       .  S
C1725      C1726   1.405       .  A
C1725      C1730   1.399       .  A
C1725      H1732   1.082       .  S
C1727      C1728   1.400       .  A
C1727     Br1734   1.921       .  S
C1728      H1733   1.084       .  S
C1729      C1730   1.419       .  A
C1730     Br1731   1.921       .  S
C1735      C1736   1.405       .  A
C1735      C1740   1.405       .  A
C1735      H1742   1.083       .  S
C1737      C1738   1.399       .  A
C1737     Br1744   1.916       .  S
C1738      H1743   1.084       .  S
C1739      C1740   1.408       .  A
C1740     Br1741   1.919       .  S
C1745      C1750   1.404       .  A
C1745      H1752   1.083       .  S
C1746      C1747   1.420       .  A
C1747      C1748   1.397       .  A
C1747     Br1754   1.924       .  S
C1748      C1749   1.404       .  A
C1748      H1753   1.083       .  S
C1750     Br1751   1.925       .  S
C1755      C1756   1.407       .  A
C1755      C1760   1.397       .  A
C1755      H1762   1.083       .  S
C1757      C1758   1.399       .  A
C1757     Br1764   1.926       .  S
C1758      H1763   1.083   1_565  S
C1759      C1760   1.418       .  A
C1760     Br1761   1.928       .  S
C1765      C1770   1.402       .  A
C1765      H1772   1.083       .  S
C1766      C1767   1.409       .  A
C1767      C1768   1.401       .  A
C1767     Br1774   1.920       .  S
C1768      C1769   1.404       .  A
C1768      H1773   1.084       .  S
C1770     Br1771   1.927       .  S
C1775      C1776   1.406       .  A
C1775      C1780   1.402       .  A
C1775      H1782   1.083       .  S
C1777      C1778   1.396       .  A
C1777     Br1784   1.924       .  S
C1778      H1783   1.083       .  S
C1779      C1780   1.421       .  A
C1780     Br1781   1.925       .  S
C1785      C1786   1.405   1_455  A
C1785      C1790   1.397       .  A
C1785      H1792   1.084       .  S
C1786      C3611   1.415       .  A
C1787      C3610   1.415       .  A
C1787      C1788   1.400       .  A
C1787     Br1794   1.922       .  S
C1788      C3613   1.405       .  A
C1788      H1793   1.084       .  S
C1789      C3612   1.405   1_455  A
C1789      C1790   1.413       .  A
C1790     Br1791   1.922       .  S
C1795      C1796   1.407   1_655  A
C1795      C1800   1.400       .  A
C1795      H1802   1.083       .  S
C1796      C3621   1.419       .  A
C1797      C3620   1.417       .  A
C1797      C1798   1.397       .  A
C1797     Br1804   1.915       .  S
C1798      C3623   1.404       .  A
C1798      H1803   1.083       .  S
C1799      C3622   1.405       .  A
C1799      C1800   1.421   1_455  A
C1800     Br1801   1.925       .  S
C1805      C1806   1.407       .  A
C1805      C1810   1.401       .  A
C1805      H1812   1.084       .  S
C1806      C3631   1.415   1_455  A
C1807      C3630   1.415       .  A
C1807      C1808   1.395       .  A
C1807     Br1814   1.923       .  S
C1808      C3633   1.402       .  A
C1808      H1813   1.081       .  S
C1809      C3632   1.402   1_455  A
C1809      C1810   1.419       .  A
C1810     Br1811   1.925       .  S
C1815      C1816   1.400   1_455  A
C1815      C1820   1.395       .  A
C1815      H1822   1.084       .  S
C1816      C3641   1.410       .  A
C1817      C3640   1.408       .  A
C1817      C1818   1.398       .  A
C1817     Br1824   1.920       .  S
C1818      C3643   1.402       .  A
C1818      H1823   1.084       .  S
C1819      C3642   1.406       .  A
C1819      C1820   1.406   1_655  A
C1820     Br1821   1.919       .  S
O1825     Zr1861   2.446       .  S
O1825      C1836   1.293       .  A
O1826     Zr1860   2.439   1_545  S
O1826      C1837   1.293       .  A
O1827     Zr1833   2.445   1_554  S
O1827      C1838   1.293       .  A
O1828      C1839   1.294       .  A
O1829     Zr1863   2.444       .  S
O1829      C1839   1.293   1_554  A
O1830     Zr1862   2.447       .  S
O1830      C1838   1.293       .  A
O1831     Zr2289   2.438       .  S
O1831      C1837   1.292       .  A
O1832     Zr1833   2.436   1_554  S
O1832      C1836   1.292       .  A
Zr1833     O2287   2.436       .  S
Zr1833     O1835   2.338   1_556  S
Zr1833     O2297   2.344       .  S
O1834     Zr2319   2.332       .  S
O1835     Zr1861   2.343       .  S
O1835     Zr1862   2.333       .  S
C1836      C2275   1.475       .  S
C1837      C2245   1.482       .  S
C1838      C2195   1.478       .  S
C1839      C2172   1.486       .  S
H1840      O1841   0.966       .  S
O1841     Zr2289   2.354       .  S
O1841     Zr1860   2.346   1_545  S
O1841     Zr2318   2.343   1_545  S
H1842      O1843   0.967       .  S
O1843     Zr1863   2.345       .  S
O1844     Zr2772   2.428       .  S
O1844      C1867   1.288       .  A
O1845     Zr2773   2.437       .  S
O1845      C1868   1.292       .  A
O1846     Zr2318   2.418       .  S
O1846      C1869   1.285       .  A
O1847     Zr2319   2.416       .  S
O1847      C1870   1.286       .  A
O1848     Zr1863   2.435       .  S
O1848      C1871   1.289       .  A
O1849     Zr1862   2.424       .  S
O1849      C1872   1.287       .  A
O1850     Zr1864   2.427       .  S
O1850      C1873   1.288       .  A
O1851      C1874   1.291       .  A
O1852     Zr2774   2.451       .  S
O1852      C1873   1.296       .  A
O1853     Zr2775   2.457   1_554  S
O1853      C1874   1.297       .  A
O1854     Zr1860   2.455       .  S
O1854      C1869   1.296       .  A
O1855     Zr1861   2.448       .  S
O1855      C1872   1.295       .  A
O1856      C1871   1.297       .  A
O1857      C1870   1.297       .  A
O1858     Zr2320   2.450       .  S
O1858      C1867   1.296       .  A
O1859     Zr1864   2.443       .  S
O1859      C1868   1.293       .  A
Zr1860     O2756   2.441       .  S
Zr1860     O2778   2.337       .  S
Zr1861     O2757   2.457   1_545  S
Zr1861     O2788   2.345   1_545  S
Zr1862     O2302   2.424   1_544  S
Zr1862     O2764   2.435   1_545  S
Zr1862     O2297   2.339   1_554  S
Zr1862     O3234   2.338   1_544  S
Zr1862     O2788   2.341   1_545  S
Zr1863     O2303   2.428   1_554  S
Zr1863     O2765   2.460   1_545  S
Zr1863     O2290   2.343   1_554  S
Zr1863     O2777   2.336   1_545  S
Zr1863     O3246   2.345   1_544  S
Zr1864     O2314   2.442   1_554  S
Zr1864     O2322   2.343   1_554  S
Zr1864     O1876   2.348       .  S
O1865     Zr2775   2.338   1_554  S
O1866     Zr2772   2.335       .  S
O1866     Zr3230   2.332       .  S
O1866     Zr2320   2.342       .  S
C1867      C2252   1.495       .  S
C1868      C2262   1.480       .  S
C1869      C2212   1.495       .  S
C1870      C2202   1.492       .  S
C1871      C2235   1.500       .  S
C1872      C2225   1.489       .  S
C1873      C2185   1.496       .  S
C1874      C2162   1.493       .  S
H1875      O1876   0.967       .  S
O1876     Zr2773   2.340       .  S
O1876     Zr2774   2.343       .  S
H1877      O1878   0.967       .  S
O1878     Zr3231   2.341       .  S
O1879     Zr1915   2.433       .  S
O1879      C1890   1.291       .  A
O1880     Zr1914   2.439       .  S
O1880      C1891   1.293       .  A
O1881     Zr1887   2.451       .  S
O1881      C1892   1.295       .  A
O1882      C1893   1.294       .  A
O1883     Zr1917   2.442       .  S
O1883      C1893   1.293       .  A
O1884     Zr1916   2.447       .  S
O1884      C1892   1.293       .  A
O1885     Zr1887   2.444       .  S
O1885      C1891   1.293       .  A
O1886     Zr1887   2.435       .  S
O1886      C1890   1.292       .  A
Zr1887     O1889   2.340       .  S
Zr1887     O1895   2.341       .  S
O1888     Zr1917   2.343       .  S
O1889     Zr1915   2.332       .  S
O1889     Zr1916   2.333       .  S
C1890      C2272   1.472       .  S
C1891      C2242   1.486       .  S
C1892      C2102   1.484       .  S
C1893      C2082   1.496       .  S
H1894      O1895   0.966       .  S
O1895     Zr1914   2.345       .  S
O1895     Zr1916   2.353       .  S
H1896      O1897   0.966       .  S
O1897     Zr1917   2.346       .  S
O1898     Zr1914   2.438       .  S
O1898      C1921   1.290       .  A
O1899     Zr1915   2.434       .  S
O1899      C1922   1.291       .  A
O1900     Zr1916   2.429       .  S
O1900      C1923   1.290       .  A
O1901     Zr1917   2.430       .  S
O1901      C1924   1.288       .  A
O1902     Zr1917   2.437       .  S
O1902      C1925   1.293       .  A
O1903     Zr1916   2.440       .  S
O1903      C1926   1.293       .  A
O1904     Zr1918   2.426       .  S
O1904      C1927   1.288       .  A
O1905      C1928   1.287       .  A
O1906     Zr1916   2.463       .  S
O1906      C1927   1.297       .  A
O1907     Zr1917   2.450       .  S
O1907      C1928   1.296       .  A
O1908     Zr1914   2.460       .  S
O1908      C1923   1.297       .  A
O1909     Zr1915   2.437       .  S
O1909      C1926   1.290       .  A
O1910      C1925   1.292       .  A
O1911      C1924   1.296       .  A
O1912     Zr1918   2.446       .  S
O1912      C1921   1.295       .  A
O1913     Zr1918   2.455       .  S
O1913      C1922   1.295       .  A
Zr1914     O1920   2.340       .  S
Zr1915     O1930   2.341       .  S
Zr1916     O1920   2.340       .  S
Zr1916     O1930   2.340       .  S
Zr1917     O1919   2.338       .  S
Zr1917     O1932   2.339       .  S
Zr1918     O1920   2.341       .  S
Zr1918     O1930   2.345       .  S
C1921      C2255   1.498       .  S
C1922      C2265   1.483       .  S
C1923      C2142   1.483       .  S
C1924      C2152   1.497       .  S
C1925      C2125   1.491       .  S
C1926      C2132   1.490       .  S
C1927      C2112   1.494       .  S
C1928      C2092   1.491       .  S
H1929      O1930   0.965       .  S
H1931      O1932   0.966       .  S
O1933     Zr1969   2.437       .  S
O1933      C1944   1.290       .  A
O1934     Zr1968   2.461       .  S
O1934      C1945   1.296       .  A
O1935     Zr1941   2.439       .  S
O1935      C1946   1.293       .  A
O1936     Zr2853   2.429       .  S
O1936      C1947   1.290       .  A
O1937     Zr1971   2.453       .  S
O1937      C1947   1.295       .  A
O1938     Zr1970   2.435       .  S
O1938      C1946   1.292       .  A
O1939     Zr1941   2.444       .  S
O1939      C1945   1.293       .  A
O1940     Zr1941   2.454       .  S
O1940      C1944   1.296       .  A
Zr1941     O2848   2.446       .  S
Zr1941     O2854   2.344       .  S
Zr1941     O1943   2.343       .  S
Zr1941     O2863   2.341       .  S
Zr1941     O1949   2.352       .  S
O1942     Zr2853   2.342       .  S
O1942     Zr2880   2.340   1_545  S
O1942     Zr1971   2.334       .  S
O1943     Zr1969   2.337       .  S
O1943     Zr1970   2.346       .  S
C1944      C3144   1.497       .  S
C1945      C3134   1.486       .  S
C1946      C2052   1.477       .  S
C1947      C2042   1.484       .  S
H1948      O1949   0.966       .  S
O1949     Zr1968   2.335       .  S
O1949     Zr1970   2.341       .  S
H1950      O1951   0.966       .  S
O1951     Zr2853   2.341       .  S
O1951     Zr2881   2.348       .  S
O1951     Zr1971   2.341       .  S
O1952     Zr1968   2.438       .  S
O1952      C1975   1.290       .  A
O1953     Zr1969   2.427       .  S
O1953      C1976   1.288       .  A
O1954     Zr1970   2.450       .  S
O1954      C1977   1.293       .  A
O1955     Zr1971   2.440       .  S
O1955      C1978   1.292       .  A
O1956     Zr1971   2.436       .  S
O1956      C1979   1.291       .  A
O1957     Zr1970   2.427       .  S
O1957      C1980   1.288       .  A
O1958     Zr1972   2.447       .  S
O1958      C1981   1.294       .  A
O1959     Zr2884   2.442   1_545  S
O1959      C1982   1.294       .  A
O1960     Zr1970   2.445       .  S
O1960      C1981   1.293       .  A
O1961     Zr1971   2.436       .  S
O1961      C1982   1.291       .  A
O1962     Zr1968   2.431       .  S
O1962      C1977   1.291       .  A
O1963     Zr1969   2.438       .  S
O1963      C1980   1.293       .  A
O1964     Zr2881   2.455       .  S
O1964      C1979   1.297       .  A
O1965     Zr2880   2.448   1_545  S
O1965      C1978   1.293       .  A
O1966     Zr1972   2.450       .  S
O1966      C1975   1.296       .  A
O1967     Zr1972   2.460       .  S
O1967      C1976   1.298       .  A
Zr1968     O2877   2.424       .  S
Zr1968     O2854   2.342       .  S
Zr1968     O1974   2.338       .  S
Zr1968     O2898   2.350       .  S
Zr1969     O2876   2.439       .  S
Zr1969     O2863   2.337       .  S
Zr1969     O2885   2.340       .  S
Zr1969     O1984   2.339       .  S
Zr1970     O1974   2.330       .  S
Zr1970     O1984   2.340       .  S
Zr1971     O1973   2.345       .  S
Zr1971     O1986   2.347       .  S
Zr1972     O2871   2.454       .  S
Zr1972     O2885   2.338       .  S
Zr1972     O1974   2.346       .  S
Zr1972     O2898   2.348       .  S
Zr1972     O1984   2.338       .  S
O1973     Zr2881   2.338       .  S
O1973     Zr2884   2.341   1_545  S
C1975      C3127   1.498       .  S
C1976      C3117   1.498       .  S
C1977      C2115   1.494       .  S
C1978      C2105   1.481       .  S
C1979      C2085   1.495       .  S
C1980      C2095   1.489       .  S
C1981      C2062   1.479       .  S
C1982      C2075   1.482       .  S
H1983      O1984   0.966       .  S
H1985      O1986   0.966       .  S
O1986     Zr2880   2.339   1_545  S
O1986     Zr2884   2.349   1_545  S
O1987     Zr2023   2.463       .  S
O1987      C1998   1.296       .  A
O1988     Zr2022   2.429       .  S
O1988      C1999   1.289       .  A
O1989     Zr2451   2.456   1_554  S
O1989      C2000   1.297       .  A
O1990     Zr1995   2.454       .  S
O1990      C2001   1.295       .  A
O1991     Zr2025   2.456       .  S
O1991      C2001   1.295       .  A
O1992     Zr2024   2.427       .  S
O1992      C2000   1.289       .  A
O1993     Zr1995   2.442       .  S
O1993      C1999   1.294       .  A
O1994     Zr1995   2.448       .  S
O1994      C1998   1.293       .  A
Zr1995     O2445   2.459       .  S
Zr1995     O1996   2.345       .  S
Zr1995     O2453   2.340       .  S
Zr1995     O2005   2.346       .  S
Zr1995     O2459   2.345       .  S
O1996     Zr2022   2.346       .  S
O1996     Zr2025   2.344       .  S
O1997     Zr2451   2.336   1_554  S
O1997     Zr2479   2.342   1_554  S
O1997     Zr2024   2.339       .  S
C1998      C2648   1.487       .  S
C1999      C2638   1.490       .  S
C2000      C2135   1.494       .  S
C2001      C2145   1.489       .  S
H2002      O2003   0.966       .  S
O2003     Zr2451   2.342   1_554  S
O2003     Zr2478   2.344       .  S
O2003     Zr2024   2.337       .  S
H2004      O2005   0.966       .  S
O2005     Zr2023   2.342       .  S
O2005     Zr2025   2.348       .  S
O2006     Zr2022   2.434       .  S
O2006      C2029   1.291       .  A
O2007     Zr2023   2.453       .  S
O2007      C2030   1.295       .  A
O2008     Zr2024   2.462       .  S
O2008      C2031   1.298       .  A
O2009     Zr2025   2.444       .  S
O2009      C2032   1.293       .  A
O2010     Zr2025   2.435       .  S
O2010      C2033   1.292       .  A
O2011     Zr2024   2.455       .  S
O2011      C2034   1.297       .  A
O2012     Zr2482   2.431       .  S
O2012      C2035   1.292       .  A
O2013     Zr2026   2.436       .  S
O2013      C2036   1.289       .  A
O2014     Zr2024   2.432       .  S
O2014      C2035   1.289       .  A
O2015     Zr2025   2.447       .  S
O2015      C2036   1.295       .  A
O2016     Zr2478   2.421       .  S
O2016      C2031   1.288       .  A
O2017     Zr2479   2.428   1_554  S
O2017      C2034   1.289       .  A
O2018     Zr2023   2.432       .  S
O2018      C2033   1.290       .  A
O2019     Zr2022   2.444       .  S
O2019      C2032   1.293       .  A
O2020     Zr2026   2.454       .  S
O2020      C2029   1.295       .  A
O2021     Zr2026   2.445       .  S
O2021      C2030   1.294       .  A
Zr2022     O2472   2.456       .  S
Zr2022     O2459   2.338       .  S
Zr2022     O2484   2.337       .  S
Zr2022     O2040   2.343       .  S
Zr2023     O2473   2.429       .  S
Zr2023     O2453   2.336       .  S
Zr2023     O2027   2.342       .  S
Zr2023     O2494   2.354       .  S
Zr2024     O2028   2.333       .  S
Zr2024     O2038   2.345       .  S
Zr2025     O2027   2.339       .  S
Zr2025     O2040   2.346       .  S
Zr2026     O2468   2.446       .  S
Zr2026     O2027   2.345       .  S
Zr2026     O2484   2.336       .  S
Zr2026     O2040   2.344       .  S
Zr2026     O2494   2.353       .  S
O2028     Zr2478   2.333       .  S
O2028     Zr2482   2.330       .  S
C2029      C2621   1.486       .  S
C2030      C2631   1.487       .  S
C2031      C2055   1.486       .  S
C2032      C2065   1.478       .  S
C2033      C2072   1.477       .  S
C2034      C2045   1.485       .  S
C2035      C2122   1.488       .  S
C2036      C2155   1.498       .  S
H2037      O2038   0.966       .  S
O2038     Zr2479   2.347   1_554  S
O2038     Zr2482   2.345       .  S
H2039      O2040   0.966       .  S
C2041      C2042   1.407       .  A
C2041      C2046   1.402       .  A
C2041      H2048   1.084       .  S
C2042      C2043   1.410       .  A
C2043      C2044   1.397       .  A
C2043     Br2050   1.919       .  S
C2044      C2045   1.403       .  A
C2044      H2049   1.082       .  S
C2045      C2046   1.417       .  A
C2046     Br2047   1.923       .  S
C2051      C2052   1.402       .  A
C2051      C2056   1.399       .  A
C2051      H2058   1.084       .  S
C2052      C2053   1.410       .  A
C2053      C2054   1.398       .  A
C2053     Br2060   1.923       .  S
C2054      C2055   1.404       .  A
C2054      H2059   1.079       .  S
C2055      C2056   1.418       .  A
C2056     Br2057   1.922       .  S
C2061      C2062   1.405       .  A
C2061      C2066   1.403       .  A
C2061      H2068   1.084       .  S
C2062      C2063   1.410       .  A
C2063      C2064   1.398       .  A
C2063     Br2070   1.917       .  S
C2064      C2065   1.401       .  A
C2064      H2069   1.083       .  S
C2065      C2066   1.411       .  A
C2066     Br2067   1.918       .  S
C2071      C2072   1.403       .  A
C2071      C2076   1.395       .  A
C2071      H2078   1.084       .  S
C2072      C2073   1.411       .  A
C2073      C2074   1.399       .  A
C2073     Br2080   1.923       .  S
C2074      C2075   1.408       .  A
C2074      H2079   1.084       .  S
C2075      C2076   1.415       .  A
C2076     Br2077   1.923       .  S
C2081      C2082   1.410       .  A
C2081      C2086   1.405       .  A
C2081      H2088   1.083       .  S
C2082      C2083   1.415       .  A
C2083      C2084   1.398       .  A
C2083     Br2090   1.924       .  S
C2084      C2085   1.405       .  A
C2084      H2089   1.081       .  S
C2085      C2086   1.418       .  A
C2086     Br2087   1.926       .  S
C2091      C2092   1.406       .  A
C2091      C2096   1.396       .  A
C2091      H2098   1.083       .  S
C2092      C2093   1.420       .  A
C2093      C2094   1.399       .  A
C2093     Br2100   1.925       .  S
C2094      C2095   1.406       .  A
C2094      H2099   1.083       .  S
C2095      C2096   1.417       .  A
C2096     Br2097   1.926       .  S
C2101      C2102   1.404       .  A
C2101      C2106   1.401       .  A
C2101      H2108   1.084       .  S
C2102      C2103   1.414       .  A
C2103      C2104   1.401       .  A
C2103     Br2110   1.919       .  S
C2104      C2105   1.404       .  A
C2104      H2109   1.084       .  S
C2105      C2106   1.410       .  A
C2106     Br2107   1.918       .  S
C2111      C2112   1.407       .  A
C2111      C2116   1.403       .  A
C2111      H2118   1.083       .  S
C2112      C2113   1.419       .  A
C2113      C2114   1.398       .  A
C2113     Br2120   1.926       .  S
C2114      C2115   1.405       .  A
C2114      H2119   1.082       .  S
C2115      C2116   1.415       .  A
C2116     Br2117   1.922       .  S
C2121      C2122   1.407       .  A
C2121      C2126   1.398       .  A
C2121      H2128   1.084       .  S
C2122      C2123   1.416       .  A
C2123      C2124   1.399       .  A
C2123     Br2130   1.926       .  S
C2124      C2125   1.408       .  A
C2124      H2129   1.083       .  S
C2125      C2126   1.416       .  A
C2126     Br2127   1.924       .  S
C2131      C2132   1.405       .  A
C2131      C2136   1.399       .  A
C2131      H2138   1.083       .  S
C2132      C2133   1.415       .  A
C2133      C2134   1.400       .  A
C2133     Br2140   1.924       .  S
C2134      C2135   1.406       .  A
C2134      H2139   1.082       .  S
C2135      C2136   1.419       .  A
C2136     Br2137   1.922       .  S
C2141      C2142   1.400       .  A
C2141      C2146   1.397       .  A
C2141      H2148   1.082       .  S
C2142      C2143   1.416       .  A
C2143      C2144   1.408       .  A
C2143     Br2150   1.925       .  S
C2144      C2145   1.409       .  A
C2144      H2149   1.084       .  S
C2145      C2146   1.412       .  A
C2146     Br2147   1.919       .  S
C2151      C2152   1.407       .  A
C2151      C2156   1.400       .  A
C2151      H2158   1.083       .  S
C2152      C2153   1.421       .  A
C2153      C2154   1.399       .  A
C2153     Br2160   1.927       .  S
C2154      C2155   1.407       .  A
C2154      H2159   1.083       .  S
C2155      C2156   1.420       .  A
C2156     Br2157   1.924       .  S
C2161      C2618   1.407       .  A
C2161      C2166   1.402       .  A
C2161      H2168   1.083       .  S
C2162      C2617   1.402   1_554  A
C2162      C2163   1.417       .  A
C2163      C2164   1.409       .  A
C2163     Br2170   1.924       .  S
C2164      C2165   1.411       .  A
C2164      H2169   1.084       .  S
C2165      C2485   1.495       .  S
C2165      C2622   1.414   1_554  A
C2166      C2621   1.414       .  A
C2166     Br2167   1.924       .  S
C2171      C2172   1.406   1_554  A
C2171      C2176   1.401       .  A
C2171      H2178   1.084       .  S
C2172      C2629   1.413       .  A
C2173      C2628   1.414       .  A
C2173      C2174   1.404       .  A
C2173     Br2180   1.921       .  S
C2174      C2631   1.407       .  A
C2174      H2179   1.084       .  S
C2175      C2486   1.485       .  S
C2175      C2630   1.408       .  A
C2175      C2176   1.411   1_556  A
C2176     Br2177   1.922       .  S
C2181      C2182   1.408       .  A
C2181      C2186   1.398   1_554  A
C2181      H2188   1.083       .  S
C2182      C2455   1.496   1_554  S
C2182      C2639   1.418   1_554  A
C2183      C2638   1.418       .  A
C2183      C2184   1.397       .  A
C2183     Br2190   1.924       .  S
C2184      C2641   1.406       .  A
C2184      H2189   1.083       .  S
C2185      C2640   1.407       .  A
C2185      C2186   1.420   1_554  A
C2186     Br2187   1.926       .  S
C2191      C2192   1.404       .  A
C2191      C2196   1.403       .  A
C2191      H2198   1.083       .  S
C2192      C2454   1.480       .  S
C2192      C2649   1.409   1_556  A
C2193      C2648   1.413       .  A
C2193      C2194   1.403       .  A
C2193     Br2200   1.914       .  S
C2194      C2651   1.404       .  A
C2194      H2199   1.084       .  S
C2195      C2650   1.402       .  A
C2195      C2196   1.410   1_554  A
C2196     Br2197   1.917       .  S
C2201      C3114   1.408       .  A
C2201      C2206   1.402       .  A
C2201      H2208   1.083       .  S
C2202      C3113   1.403       .  A
C2202      C2203   1.420   1_545  A
C2203      C2204   1.399       .  A
C2203     Br2210   1.925       .  S
C2204      C2205   1.405   1_565  A
C2204      H2209   1.083       .  S
C2205      C2888   1.496       .  S
C2205      C3118   1.421       .  A
C2206      C3117   1.422       .  A
C2206     Br2207   1.926       .  S
C2211      C2212   1.406       .  A
C2211      C2216   1.399       .  A
C2211      H2218   1.083       .  S
C2212      C3125   1.421       .  A
C2213      C3124   1.421       .  A
C2213      C2214   1.400       .  A
C2213     Br2220   1.926       .  S
C2214      C3127   1.407       .  A
C2214      H2219   1.083       .  S
C2215      C2887   1.494       .  S
C2215      C3126   1.406       .  A
C2215      C2216   1.420       .  A
C2216     Br2217   1.927       .  S
C2221      C3134   1.405       .  A
C2221      C2226   1.404       .  A
C2221      H2228   1.084       .  S
C2222      C2857   1.490       .  S
C2222      C3133   1.404   1_565  A
C2222      C2223   1.418       .  A
C2223      C2224   1.397       .  A
C2223     Br2230   1.916       .  S
C2224      C2225   1.403   1_565  A
C2224      H2229   1.084       .  S
C2225      C3138   1.419       .  A
C2226      C3137   1.414       .  A
C2226     Br2227   1.919       .  S
C2231      C2232   1.405   1_565  A
C2231      C2236   1.400       .  A
C2231      H2238   1.083       .  S
C2232      C2856   1.497       .  S
C2232      C3145   1.421       .  A
C2233      C3144   1.420       .  A
C2233      C2234   1.397       .  A
C2233     Br2240   1.919       .  S
C2234      C3147   1.402       .  A
C2234      H2239   1.084       .  S
C2235      C3146   1.407       .  A
C2235      C2236   1.420   1_545  A
C2236     Br2237   1.923       .  S
C2241      C2242   1.406       .  A
C2241      C2246   1.398       .  A
C2241      H2248   1.084       .  S
C2243      C2244   1.399       .  A
C2243     Br2250   1.921       .  S
C2244      H2249   1.084       .  S
C2245      C2246   1.413       .  A
C2246     Br2247   1.924       .  S
C2251      C2252   1.407       .  A
C2251      C2256   1.402       .  A
C2251      H2258   1.083       .  S
C2253      C2254   1.401       .  A
C2253     Br2260   1.921       .  S
C2254      H2259   1.083       .  S
C2255      C2256   1.420       .  A
C2256     Br2257   1.922       .  S
C2261      C2262   1.403       .  A
C2261      C2266   1.399       .  A
C2261      H2268   1.084       .  S
C2263      C2264   1.401       .  A
C2263     Br2270   1.920       .  S
C2264      H2269   1.084       .  S
C2265      C2266   1.414       .  A
C2266     Br2267   1.920       .  S
C2271      C2272   1.405       .  A
C2271      C2276   1.401       .  A
C2271      H2278   1.084       .  S
C2273      C2274   1.397       .  A
C2273     Br2280   1.923       .  S
C2274      H2279   1.084       .  S
C2275      C2276   1.411       .  A
C2276     Br2277   1.921       .  S
O2281     Zr2317   2.445   1_545  S
O2281      C2292   1.293       .  A
O2282     Zr2316   2.435       .  S
O2282      C2293   1.293       .  A
O2283     Zr2289   2.447       .  S
O2283      C2294   1.294       .  A
O2284      C2295   1.294       .  A
O2285     Zr2319   2.448       .  S
O2285      C2295   1.294       .  A
O2286     Zr2318   2.454   1_545  S
O2286      C2294   1.295       .  A
O2287      C2293   1.291       .  A
O2288     Zr2289   2.455       .  S
O2288      C2292   1.295       .  A
Zr2289     O2291   2.339       .  S
O2291     Zr2317   2.335   1_545  S
O2291     Zr2318   2.338   1_545  S
C2292      C2731   1.482       .  S
C2293      C2701   1.474       .  S
C2294      C2651   1.483       .  S
C2295      C2628   1.489       .  S
H2296      O2297   0.966       .  S
O2297     Zr2316   2.348       .  S
H2298      O2299   0.967       .  S
O2299     Zr2319   2.342       .  S
O2300     Zr3228   2.444       .  S
O2300      C2323   1.293       .  A
O2301     Zr3229   2.428       .  S
O2301      C2324   1.290       .  A
O2302      C2325   1.287       .  A
O2303      C2326   1.288       .  A
O2304     Zr2319   2.423   1_565  S
O2304      C2327   1.287       .  A
O2305     Zr2318   2.435   1_545  S
O2305      C2328   1.290       .  A
O2306     Zr2320   2.421       .  S
O2306      C2329   1.286       .  A
O2307      C2330   1.295       .  A
O2308     Zr3230   2.447       .  S
O2308      C2329   1.295       .  A
O2309     Zr3231   2.439       .  S
O2309      C2330   1.292       .  A
O2310     Zr2316   2.454   1_565  S
O2310      C2325   1.296       .  A
O2311     Zr2317   2.441   1_545  S
O2311      C2328   1.294       .  A
O2312      C2327   1.299       .  A
O2313      C2326   1.299       .  A
O2314      C2323   1.293       .  A
O2315     Zr2320   2.449       .  S
O2315      C2324   1.294       .  A
Zr2316     O3212   2.437   1_545  S
Zr2316     O3234   2.340   1_545  S
Zr2317     O3213   2.434       .  S
Zr2317     O3244   2.342       .  S
Zr2318     O3220   2.454       .  S
Zr2318     O2778   2.340       .  S
Zr2318     O3244   2.337       .  S
Zr2319     O3221   2.445   1_545  S
Zr2319     O3233   2.338   1_545  S
Zr2319     O2790   2.348   1_545  S
Zr2320     O2332   2.345       .  S
O2321     Zr3231   2.342       .  S
O2322     Zr3228   2.342       .  S
O2322     Zr2774   2.344   1_556  S
C2323      C2708   1.477       .  S
C2324      C2718   1.480       .  S
C2325      C2668   1.495       .  S
C2326      C2658   1.502       .  S
C2327      C2691   1.498       .  S
C2328      C2681   1.489       .  S
C2329      C2641   1.491       .  S
C2330      C2618   1.489       .  S
H2331      O2332   0.967       .  S
O2332     Zr3229   2.342       .  S
O2332     Zr3230   2.341       .  S
H2333      O2334   0.967       .  S
O2334     Zr2775   2.343       .  S
O2335     Zr2371   2.450       .  S
O2335      C2346   1.294       .  A
O2336     Zr2370   2.437       .  S
O2336      C2347   1.292       .  A
O2337     Zr2343   2.448       .  S
O2337      C2348   1.295       .  A
O2338      C2349   1.295       .  A
O2339     Zr2373   2.440       .  S
O2339      C2349   1.292       .  A
O2340     Zr2372   2.444       .  S
O2340      C2348   1.293       .  A
O2341     Zr2343   2.444       .  S
O2341      C2347   1.293       .  A
O2342     Zr2343   2.436       .  S
O2342      C2346   1.292       .  A
Zr2343     O2345   2.345       .  S
Zr2343     O2351   2.343       .  S
O2344     Zr2373   2.348       .  S
O2345     Zr2371   2.337       .  S
O2345     Zr2372   2.342       .  S
C2346      C2728   1.477       .  S
C2347      C2698   1.479       .  S
C2348      C2558   1.488       .  S
C2349      C2538   1.485       .  S
H2350      O2351   0.966       .  S
O2351     Zr2370   2.341       .  S
O2351     Zr2372   2.346       .  S
H2352      O2353   0.966       .  S
O2353     Zr2373   2.345       .  S
O2354     Zr2370   2.433       .  S
O2354      C2377   1.291       .  A
O2355     Zr2371   2.446       .  S
O2355      C2378   1.293       .  A
O2356     Zr2372   2.437       .  S
O2356      C2379   1.290       .  A
O2357     Zr2373   2.429       .  S
O2357      C2380   1.288       .  A
O2358     Zr2373   2.449       .  S
O2358      C2381   1.295       .  A
O2359     Zr2372   2.448       .  S
O2359      C2382   1.295       .  A
O2360     Zr2374   2.430       .  S
O2360      C2383   1.290       .  A
O2361      C2384   1.291       .  A
O2362     Zr2372   2.469       .  S
O2362      C2383   1.299       .  A
O2363     Zr2373   2.441       .  S
O2363      C2384   1.293       .  A
O2364     Zr2370   2.460       .  S
O2364      C2379   1.297       .  A
O2365     Zr2371   2.441       .  S
O2365      C2382   1.290       .  A
O2366      C2381   1.293       .  A
O2367      C2380   1.295       .  A
O2368     Zr2374   2.442       .  S
O2368      C2377   1.293       .  A
O2369     Zr2374   2.442       .  S
O2369      C2378   1.293       .  A
Zr2370     O2376   2.347       .  S
Zr2371     O2386   2.341       .  S
Zr2372     O2376   2.342       .  S
Zr2372     O2386   2.333       .  S
Zr2373     O2375   2.335       .  S
Zr2373     O2388   2.343       .  S
Zr2374     O2376   2.346       .  S
Zr2374     O2386   2.342       .  S
C2377      C2711   1.474       .  S
C2378      C2721   1.482       .  S
C2379      C2598   1.498       .  S
C2380      C2608   1.489       .  S
C2381      C2581   1.498       .  S
C2382      C2588   1.498       .  S
C2383      C2568   1.492       .  S
C2384      C2548   1.497       .  S
H2385      O2386   0.965       .  S
H2387      O2388   0.966       .  S
O2389     Zr2425   2.420       .  S
O2389      C2400   1.287       .  A
O2390     Zr2424   2.422       .  S
O2390      C2401   1.287       .  A
O2391     Zr2397   2.442       .  S
O2391      C2402   1.294       .  A
O2392     Zr3309   2.443   1_545  S
O2392      C2403   1.292       .  A
O2393     Zr2427   2.440       .  S
O2393      C2403   1.292       .  A
O2394     Zr2426   2.449       .  S
O2394      C2402   1.294       .  A
O2395     Zr2397   2.454       .  S
O2395      C2401   1.297       .  A
O2396     Zr2397   2.456       .  S
O2396      C2400   1.297       .  A
Zr2397     O3304   2.441       .  S
Zr2397     O3310   2.342       .  S
Zr2397     O2399   2.343       .  S
Zr2397     O3319   2.340       .  S
Zr2397     O2405   2.347       .  S
O2398     Zr3309   2.339   1_545  S
O2398     Zr3336   2.339   1_545  S
O2398     Zr2427   2.333       .  S
O2399     Zr2425   2.337       .  S
O2399     Zr2426   2.342       .  S
C2400      C3600   1.491       .  S
C2401      C3590   1.493       .  S
C2402      C2508   1.488       .  S
C2403      C2498   1.480       .  S
H2404      O2405   0.966       .  S
O2405     Zr2424   2.338       .  S
O2405     Zr2426   2.339       .  S
H2406      O2407   0.966       .  S
O2407     Zr3309   2.344   1_545  S
O2407     Zr3337   2.356       .  S
O2407     Zr2427   2.350       .  S
O2408     Zr2424   2.434       .  S
O2408      C2431   1.290       .  A
O2409     Zr2425   2.420       .  S
O2409      C2432   1.287       .  A
O2410     Zr2426   2.443       .  S
O2410      C2433   1.292       .  A
O2411     Zr2427   2.456       .  S
O2411      C2434   1.296       .  A
O2412     Zr2427   2.441       .  S
O2412      C2435   1.293       .  A
O2413     Zr2426   2.429       .  S
O2413      C2436   1.289       .  A
O2414     Zr2428   2.426       .  S
O2414      C2437   1.289       .  A
O2415     Zr3340   2.443       .  S
O2415      C2438   1.293       .  A
O2416     Zr2426   2.451       .  S
O2416      C2437   1.296       .  A
O2417     Zr2427   2.435       .  S
O2417      C2438   1.291       .  A
O2418     Zr2424   2.456       .  S
O2418      C2433   1.296       .  A
O2419     Zr2425   2.451       .  S
O2419      C2436   1.295       .  A
O2420     Zr3337   2.454       .  S
O2420      C2435   1.296       .  A
O2421     Zr3336   2.435   1_545  S
O2421      C2434   1.291       .  A
O2422     Zr2428   2.446       .  S
O2422      C2431   1.295       .  A
O2423     Zr2428   2.459       .  S
O2423      C2432   1.297       .  A
Zr2424     O3333   2.433       .  S
Zr2424     O3310   2.343       .  S
Zr2424     O2430   2.328       .  S
Zr2424     O3354   2.346       .  S
Zr2425     O3332   2.443       .  S
Zr2425     O3319   2.343       .  S
Zr2425     O3341   2.340       .  S
Zr2425     O2440   2.339       .  S
Zr2426     O2430   2.332       .  S
Zr2426     O2440   2.345       .  S
Zr2427     O2429   2.341       .  S
Zr2427     O2442   2.343       .  S
Zr2428     O3327   2.435       .  S
Zr2428     O3341   2.334       .  S
Zr2428     O2430   2.343       .  S
Zr2428     O3354   2.345       .  S
Zr2428     O2440   2.341       .  S
O2429     Zr3337   2.338       .  S
O2429     Zr3340   2.330       .  S
C2431      C3583   1.493       .  S
C2432      C3573   1.491       .  S
C2433      C2571   1.494       .  S
C2434      C2561   1.488       .  S
C2435      C2541   1.485       .  S
C2436      C2551   1.494       .  S
C2437      C2518   1.489       .  S
C2438      C2531   1.487       .  S
H2439      O2440   0.966       .  S
H2441      O2442   0.966       .  S
O2442     Zr3336   2.347   1_545  S
O2442     Zr3340   2.346       .  S
O2443     Zr2479   2.449       .  S
O2443      C2454   1.293       .  A
O2444     Zr2478   2.440       .  S
O2444      C2455   1.291   1_554  A
O2445      C2456   1.297       .  A
O2446     Zr2451   2.444       .  S
O2446      C2457   1.292       .  A
O2447     Zr2481   2.454       .  S
O2447      C2457   1.296       .  A
O2448     Zr2480   2.425       .  S
O2448      C2456   1.288       .  A
O2449     Zr2451   2.438       .  S
O2449      C2455   1.294       .  A
O2450     Zr2451   2.447       .  S
O2450      C2454   1.294       .  A
Zr2451     O2452   2.345       .  S
Zr2451     O2461   2.345       .  S
O2452     Zr2478   2.341   1_556  S
O2452     Zr2481   2.336       .  S
O2453     Zr2480   2.341       .  S
C2456      C2591   1.495       .  S
C2457      C2601   1.495       .  S
H2458      O2459   0.965       .  S
O2459     Zr2480   2.346       .  S
H2460      O2461   0.966       .  S
O2461     Zr2479   2.341       .  S
O2461     Zr2481   2.339       .  S
O2462     Zr2478   2.452       .  S
O2462      C2485   1.294       .  A
O2463     Zr2479   2.456       .  S
O2463      C2486   1.295       .  A
O2464     Zr2480   2.449       .  S
O2464      C2487   1.295       .  A
O2465     Zr2481   2.435       .  S
O2465      C2488   1.290       .  A
O2466     Zr2481   2.431       .  S
O2466      C2489   1.292       .  A
O2467     Zr2480   2.457       .  S
O2467      C2490   1.296       .  A
O2468      C2491   1.294       .  A
O2469     Zr2482   2.417   1_556  S
O2469      C2492   1.286       .  A
O2470     Zr2480   2.448       .  S
O2470      C2491   1.292       .  A
O2471     Zr2481   2.432       .  S
O2471      C2492   1.293       .  A
O2472      C2487   1.295       .  A
O2473      C2490   1.290       .  A
O2474     Zr2479   2.430       .  S
O2474      C2489   1.290       .  A
O2475     Zr2478   2.436   1_556  S
O2475      C2488   1.292       .  A
O2476     Zr2482   2.449       .  S
O2476      C2485   1.294       .  A
O2477     Zr2482   2.434   1_556  S
O2477      C2486   1.291       .  A
Zr2478     O2496   2.335   1_554  S
Zr2479     O2483   2.331       .  S
Zr2480     O2484   2.334       .  S
Zr2480     O2494   2.343       .  S
Zr2481     O2483   2.339       .  S
Zr2481     O2496   2.348       .  S
Zr2482     O2483   2.337   1_554  S
Zr2482     O2496   2.348   1_554  S
C2487      C2511   1.495       .  S
C2488      C2521   1.488       .  S
C2489      C2528   1.480       .  S
C2490      C2501   1.481       .  S
C2491      C2578   1.499       .  S
C2492      C2611   1.484       .  S
H2493      O2494   0.966       .  S
H2495      O2496   0.966       .  S
C2497      C2498   1.405       .  A
C2497      C2502   1.403       .  A
C2497      H2504   1.084       .  S
C2498      C2499   1.410       .  A
C2499      C2500   1.397       .  A
C2499     Br2506   1.920       .  S
C2500      C2501   1.401       .  A
C2500      H2505   1.082       .  S
C2501      C2502   1.415       .  A
C2502     Br2503   1.920       .  S
C2507      C2508   1.406       .  A
C2507      C2512   1.403       .  A
C2507      H2514   1.084       .  S
C2508      C2509   1.413       .  A
C2509      C2510   1.403       .  A
C2509     Br2516   1.925       .  S
C2510      C2511   1.407       .  A
C2510      H2515   1.079       .  S
C2511      C2512   1.415       .  A
C2512     Br2513   1.921       .  S
C2517      C2518   1.405       .  A
C2517      C2522   1.396       .  A
C2517      H2524   1.083       .  S
C2518      C2519   1.418       .  A
C2519      C2520   1.400       .  A
C2519     Br2526   1.925       .  S
C2520      C2521   1.407       .  A
C2520      H2525   1.083       .  S
C2521      C2522   1.416       .  A
C2522     Br2523   1.924       .  S
C2527      C2528   1.402       .  A
C2527      C2532   1.395       .  A
C2527      H2534   1.084       .  S
C2528      C2529   1.413       .  A
C2529      C2530   1.401       .  A
C2529     Br2536   1.924       .  S
C2530      C2531   1.409       .  A
C2530      H2535   1.084       .  S
C2531      C2532   1.416       .  A
C2532     Br2533   1.922       .  S
C2537      C2538   1.405       .  A
C2537      C2542   1.402       .  A
C2537      H2544   1.080       .  S
C2538      C2539   1.410       .  A
C2539      C2540   1.401       .  A
C2539     Br2546   1.919       .  S
C2540      C2541   1.404       .  A
C2540      H2545   1.083       .  S
C2541      C2542   1.414       .  A
C2542     Br2543   1.921       .  S
C2547      C2548   1.408       .  A
C2547      C2552   1.401       .  A
C2547      H2554   1.083       .  S
C2548      C2549   1.418       .  A
C2549      C2550   1.400       .  A
C2549     Br2556   1.921       .  S
C2550      C2551   1.406       .  A
C2550      H2555   1.083       .  S
C2551      C2552   1.418       .  A
C2552     Br2553   1.926       .  S
C2557      C2558   1.406       .  A
C2557      C2562   1.402       .  A
C2557      H2564   1.084       .  S
C2558      C2559   1.415       .  A
C2559      C2560   1.401       .  A
C2559     Br2566   1.921       .  S
C2560      C2561   1.404       .  A
C2560      H2565   1.084       .  S
C2561      C2562   1.415       .  A
C2562     Br2563   1.921       .  S
C2567      C2568   1.401       .  A
C2567      C2572   1.399       .  A
C2567      H2574   1.078       .  S
C2568      C2569   1.417       .  A
C2569      C2570   1.405       .  A
C2569     Br2576   1.922       .  S
C2570      C2571   1.407       .  A
C2570      H2575   1.084       .  S
C2571      C2572   1.416       .  A
C2572     Br2573   1.920       .  S
C2577      C2578   1.410       .  A
C2577      C2582   1.406       .  A
C2577      H2584   1.084       .  S
C2578      C2579   1.417       .  A
C2579      C2580   1.401       .  A
C2579     Br2586   1.923       .  S
C2580      C2581   1.406       .  A
C2580      H2585   1.083       .  S
C2581      C2582   1.418       .  A
C2582     Br2583   1.925       .  S
C2587      C2588   1.407       .  A
C2587      C2592   1.400       .  A
C2587      H2594   1.083       .  S
C2588      C2589   1.419       .  A
C2589      C2590   1.399       .  A
C2589     Br2596   1.924       .  S
C2590      C2591   1.404       .  A
C2590      H2595   1.082       .  S
C2591      C2592   1.419       .  A
C2592     Br2593   1.923       .  S
C2597      C2598   1.407       .  A
C2597      C2602   1.404       .  A
C2597      H2604   1.083       .  S
C2598      C2599   1.420       .  A
C2599      C2600   1.402       .  A
C2599     Br2606   1.921       .  S
C2600      C2601   1.404       .  A
C2600      H2605   1.083       .  S
C2601      C2602   1.417       .  A
C2602     Br2603   1.923       .  S
C2607      C2608   1.406       .  A
C2607      C2612   1.397       .  A
C2607      H2614   1.083       .  S
C2608      C2609   1.418       .  A
C2609      C2610   1.394       .  A
C2609     Br2616   1.922       .  S
C2610      C2611   1.403       .  A
C2610      H2615   1.083       .  S
C2611      C2612   1.418       .  A
C2612     Br2613   1.927       .  S
C2617      C2622   1.397       .  A
C2617      H2624   1.080       .  S
C2618      C2619   1.414       .  A
C2619      C2620   1.402       .  A
C2619     Br2626   1.921       .  S
C2620      C2621   1.405       .  A
C2620      H2625   1.084       .  S
C2622     Br2623   1.923       .  S
C2627      C2628   1.406       .  A
C2627      C2632   1.402       .  A
C2627      H2634   1.084       .  S
C2629      C2630   1.404       .  A
C2629     Br2636   1.924       .  S
C2630      H2635   1.084       .  S
C2631      C2632   1.412       .  A
C2632     Br2633   1.921       .  S
C2637      C2638   1.406       .  A
C2637      C2642   1.397       .  A
C2637      H2644   1.083       .  S
C2639      C2640   1.399   1_556  A
C2639     Br2646   1.924       .  S
C2640      H2645   1.083       .  S
C2641      C2642   1.420       .  A
C2642     Br2643   1.927       .  S
C2647      C2648   1.404       .  A
C2647      C2652   1.403       .  A
C2647      H2654   1.083       .  S
C2649      C2650   1.401       .  A
C2649     Br2656   1.913       .  S
C2650      H2655   1.084       .  S
C2651      C2652   1.410       .  A
C2652     Br2653   1.917       .  S
C2657      C3570   1.407       .  A
C2657      C2662   1.403       .  A
C2657      H2664   1.083       .  S
C2658      C3569   1.406       .  A
C2658      C2659   1.423   1_545  A
C2659      C2660   1.404       .  A
C2659     Br2666   1.927       .  S
C2660      C2661   1.408   1_565  A
C2660      H2665   1.083       .  S
C2661      C3344   1.506       .  S
C2661      C3574   1.420       .  A
C2662      C3573   1.419       .  A
C2662     Br2663   1.925       .  S
C2667      C2668   1.406       .  A
C2667      C2672   1.397       .  A
C2667      H2674   1.079       .  S
C2668      C3581   1.421       .  A
C2669      C3580   1.420       .  A
C2669      C2670   1.399       .  A
C2669     Br2676   1.928       .  S
C2670      C3583   1.406       .  A
C2670      H2675   1.083       .  S
C2671      C3343   1.491       .  S
C2671      C3582   1.406       .  A
C2671      C2672   1.415       .  A
C2672     Br2673   1.926       .  S
C2677      C3590   1.405       .  A
C2677      C2682   1.397       .  A
C2677      H2684   1.083       .  S
C2678      C3313   1.491       .  S
C2678      C3589   1.407       .  A
C2678      C2679   1.419   1_545  A
C2679      C2680   1.398       .  A
C2679     Br2686   1.925       .  S
C2680      C2681   1.405   1_565  A
C2680      H2685   1.083       .  S
C2681      C3594   1.416       .  A
C2682      C3593   1.420       .  A
C2682     Br2683   1.926       .  S
C2687      C2688   1.409       .  A
C2687      C2692   1.405       .  A
C2687      H2694   1.083       .  S
C2688      C3312   1.502       .  S
C2688      C3601   1.421   1_565  A
C2689      C3600   1.420       .  A
C2689      C2690   1.399       .  A
C2689     Br2696   1.924       .  S
C2690      C3603   1.405       .  A
C2690      H2695   1.083       .  S
C2691      C3602   1.403   1_565  A
C2691      C2692   1.421       .  A
C2692     Br2693   1.926       .  S
C2697      C2698   1.406       .  A
C2697      C2702   1.400       .  A
C2697      H2704   1.084       .  S
C2699      C2700   1.394       .  A
C2699     Br2706   1.920       .  S
C2700      H2705   1.084       .  S
C2701      C2702   1.412       .  A
C2702     Br2703   1.922       .  S
C2707      C2708   1.405       .  A
C2707      C2712   1.401       .  A
C2707      H2714   1.084       .  S
C2709      C2710   1.396       .  A
C2709     Br2716   1.924       .  S
C2710      H2715   1.080       .  S
C2711      C2712   1.410       .  A
C2712     Br2713   1.923       .  S
C2717      C2718   1.404       .  A
C2717      C2722   1.399       .  A
C2717      H2724   1.084       .  S
C2719      C2720   1.403       .  A
C2719     Br2726   1.920       .  S
C2720      H2725   1.084       .  S
C2721      C2722   1.413       .  A
C2722     Br2723   1.918       .  S
C2727      C2728   1.403       .  A
C2727      C2732   1.401       .  A
C2727      H2734   1.084       .  S
C2729      C2730   1.402       .  A
C2729     Br2736   1.923       .  S
C2730      H2735   1.083       .  S
C2731      C2732   1.412       .  A
C2732     Br2733   1.919       .  S
O2737     Zr2773   2.433       .  S
O2737      C2748   1.291       .  A
O2738     Zr2772   2.439       .  S
O2738      C2749   1.293       .  A
O2739     Zr2745   2.445       .  S
O2739      C2750   1.293       .  A
O2740      C2751   1.295       .  A
O2741     Zr2775   2.455       .  S
O2741      C2751   1.296       .  A
O2742     Zr2774   2.460   1_556  S
O2742      C2750   1.296       .  A
O2743     Zr3201   2.426       .  S
O2743      C2749   1.290       .  A
O2744     Zr2745   2.443   1_554  S
O2744      C2748   1.293       .  A
Zr2745     O3199   2.437       .  S
Zr2745     O2747   2.345   1_556  S
Zr2745     O3209   2.348       .  S
O2746     Zr3231   2.338       .  S
O2747     Zr2773   2.340       .  S
O2747     Zr2774   2.337       .  S
C2748      C3187   1.470       .  S
C2749      C3157   1.478       .  S
C2750      C3107   1.480       .  S
C2751      C3084   1.497       .  S
H2752      O2753   0.967       .  S
O2753     Zr3201   2.347       .  S
O2753     Zr2772   2.341       .  S
O2753     Zr3230   2.342       .  S
H2754      O2755   0.966       .  S
O2755     Zr2775   2.338   1_554  S
O2756      C2779   1.292       .  A
O2757      C2780   1.296       .  A
O2758     Zr3230   2.427       .  S
O2758      C2781   1.287       .  A
O2759     Zr3231   2.436       .  S
O2759      C2782   1.289       .  A
O2760     Zr2775   2.423   1_554  S
O2760      C2783   1.288       .  A
O2761     Zr2774   2.441       .  S
O2761      C2784   1.292       .  A
O2762     Zr2776   2.446   1_556  S
O2762      C2785   1.293   1_556  A
O2763      C2786   1.293       .  A
O2764      C2785   1.292       .  A
O2765      C2786   1.297       .  A
O2766     Zr2772   2.460       .  S
O2766      C2781   1.297       .  A
O2767     Zr2773   2.462       .  S
O2767      C2784   1.297       .  A
O2768      C2783   1.294       .  A
O2769      C2782   1.295       .  A
O2770     Zr3232   2.453       .  S
O2770      C2779   1.296       .  A
O2771     Zr2776   2.440       .  S
O2771      C2780   1.293       .  A
Zr2774     O3214   2.420   1_554  S
Zr2774     O3209   2.343   1_554  S
Zr2775     O3215   2.430       .  S
Zr2775     O3202   2.334       .  S
Zr2776     O3226   2.448   1_554  S
Zr2776     O3234   2.335   1_554  S
Zr2776     O2788   2.346       .  S
O2778     Zr3232   2.341       .  S
C2779      C3164   1.489       .  S
C2780      C3174   1.487       .  S
C2781      C3124   1.498       .  S
C2782      C3114   1.497       .  S
C2783      C3147   1.487       .  S
C2784      C3137   1.486       .  S
C2785      C3097   1.482       .  S
C2786      C3074   1.493       .  S
H2787      O2788   0.967       .  S
H2789      O2790   0.967       .  S
O2791     Zr2827   2.431       .  S
O2791      C2802   1.291       .  A
O2792     Zr2826   2.433       .  S
O2792      C2803   1.292       .  A
O2793     Zr2799   2.443       .  S
O2793      C2804   1.293       .  A
O2794      C2805   1.292       .  A
O2795     Zr2829   2.446       .  S
O2795      C2805   1.294       .  A
O2796     Zr2828   2.448       .  S
O2796      C2804   1.294       .  A
O2797     Zr2799   2.445       .  S
O2797      C2803   1.293       .  A
O2798     Zr2799   2.434       .  S
O2798      C2802   1.291       .  A
Zr2799     O2801   2.340       .  S
Zr2799     O2807   2.338       .  S
O2800     Zr2829   2.344       .  S
O2801     Zr2827   2.344       .  S
O2801     Zr2828   2.338       .  S
C2802      C3184   1.466       .  S
C2803      C3154   1.484       .  S
C2804      C3014   1.485       .  S
C2805      C2994   1.489       .  S
H2806      O2807   0.966       .  S
O2807     Zr2826   2.337       .  S
O2807     Zr2828   2.339       .  S
H2808      O2809   0.966       .  S
O2809     Zr2829   2.336       .  S
O2810     Zr2826   2.432       .  S
O2810      C2833   1.290       .  A
O2811     Zr2827   2.438       .  S
O2811      C2834   1.291       .  A
O2812     Zr2828   2.427       .  S
O2812      C2835   1.288       .  A
O2813     Zr2829   2.425       .  S
O2813      C2836   1.287       .  A
O2814     Zr2829   2.444       .  S
O2814      C2837   1.294       .  A
O2815     Zr2828   2.421       .  S
O2815      C2838   1.290       .  A
O2816     Zr2830   2.432       .  S
O2816      C2839   1.291       .  A
O2817      C2840   1.292       .  A
O2818     Zr2828   2.446       .  S
O2818      C2839   1.294       .  A
O2819     Zr2829   2.457       .  S
O2819      C2840   1.297       .  A
O2820     Zr2826   2.458       .  S
O2820      C2835   1.297       .  A
O2821     Zr2827   2.421       .  S
O2821      C2838   1.287       .  A
O2822      C2837   1.289       .  A
O2823      C2836   1.297       .  A
O2824     Zr2830   2.456       .  S
O2824      C2833   1.297       .  A
O2825     Zr2830   2.470       .  S
O2825      C2834   1.298       .  A
Zr2826     O2832   2.340       .  S
Zr2827     O2842   2.339       .  S
Zr2828     O2832   2.340       .  S
Zr2828     O2842   2.344       .  S
Zr2829     O2831   2.337       .  S
Zr2829     O2844   2.343       .  S
Zr2830     O2832   2.345       .  S
Zr2830     O2842   2.340       .  S
C2833      C3167   1.492       .  S
C2834      C3177   1.491       .  S
C2835      C3054   1.495       .  S
C2836      C3064   1.498       .  S
C2837      C3037   1.498       .  S
C2838      C3044   1.480       .  S
C2839      C3024   1.488       .  S
C2840      C3004   1.502       .  S
H2841      O2842   0.966       .  S
H2843      O2844   0.966       .  S
O2845     Zr2881   2.423       .  S
O2845      C2856   1.287       .  A
O2846     Zr2880   2.427       .  S
O2846      C2857   1.289       .  A
O2847     Zr2853   2.425   1_565  S
O2847      C2858   1.290       .  A
O2848      C2859   1.294       .  A
O2849     Zr2883   2.435       .  S
O2849      C2859   1.291       .  A
O2850     Zr2882   2.448       .  S
O2850      C2858   1.294       .  A
O2851     Zr2853   2.451   1_565  S
O2851      C2857   1.296       .  A
O2852     Zr2853   2.458       .  S
O2852      C2856   1.297       .  A
Zr2853     O2855   2.343   1_545  S
Zr2853     O2861   2.346   1_545  S
O2854     Zr2883   2.341       .  S
O2855     Zr2881   2.341   1_565  S
O2855     Zr2882   2.339       .  S
C2858      C2964   1.474       .  S
C2859      C2954   1.481       .  S
H2860      O2861   0.966       .  S
O2861     Zr2880   2.342       .  S
O2861     Zr2882   2.340       .  S
H2862      O2863   0.966       .  S
O2863     Zr2883   2.345       .  S
O2864     Zr2880   2.424       .  S
O2864      C2887   1.287       .  A
O2865     Zr2881   2.432       .  S
O2865      C2888   1.289       .  A
O2866     Zr2882   2.445       .  S
O2866      C2889   1.292       .  A
O2867     Zr2883   2.449       .  S
O2867      C2890   1.295       .  A
O2868     Zr2883   2.439       .  S
O2868      C2891   1.291       .  A
O2869     Zr2882   2.437       .  S
O2869      C2892   1.290       .  A
O2870     Zr2884   2.448       .  S
O2870      C2893   1.294       .  A
O2871      C2894   1.295       .  A
O2872     Zr2882   2.439       .  S
O2872      C2893   1.292       .  A
O2873     Zr2883   2.433       .  S
O2873      C2894   1.291       .  A
O2874     Zr2880   2.447       .  S
O2874      C2889   1.295       .  A
O2875     Zr2881   2.469   1_565  S
O2875      C2892   1.299       .  A
O2876      C2891   1.293       .  A
O2877      C2890   1.289       .  A
O2878     Zr2884   2.451       .  S
O2878      C2887   1.296       .  A
O2879     Zr2884   2.456   1_545  S
O2879      C2888   1.297       .  A
Zr2880     O2886   2.337       .  S
Zr2881     O2896   2.338   1_545  S
Zr2882     O2886   2.339       .  S
Zr2882     O2896   2.346       .  S
Zr2883     O2885   2.339       .  S
Zr2883     O2898   2.341       .  S
Zr2884     O2886   2.340       .  S
Zr2884     O2896   2.342       .  S
C2889      C3027   1.496       .  S
C2890      C3017   1.479       .  S
C2891      C2997   1.490       .  S
C2892      C3007   1.503       .  S
C2893      C2974   1.476       .  S
C2894      C2987   1.482       .  S
H2895      O2896   0.966       .  S
H2897      O2898   0.966       .  S
O2899     Zr2935   2.455       .  S
O2899      C2910   1.294       .  A
O2900     Zr2934   2.439       .  S
O2900      C2911   1.291       .  A
O2901     Zr3363   2.429       .  S
O2901      C2912   1.291       .  A
O2902     Zr2907   2.436       .  S
O2902      C2913   1.290       .  A
O2903     Zr2937   2.455       .  S
O2903      C2913   1.296       .  A
O2904     Zr2936   2.432       .  S
O2904      C2912   1.289       .  A
O2905     Zr2907   2.441       .  S
O2905      C2911   1.294       .  A
O2906     Zr2907   2.446       .  S
O2906      C2910   1.293       .  A
Zr2907     O3357   2.455       .  S
Zr2907     O2908   2.347       .  S
Zr2907     O3365   2.335       .  S
Zr2907     O2917   2.346       .  S
Zr2907     O3371   2.339       .  S
O2908     Zr2934   2.338       .  S
O2908     Zr2937   2.343       .  S
O2909     Zr3363   2.342       .  S
O2909     Zr3391   2.341       .  S
O2909     Zr2936   2.340       .  S
C2910      C3560   1.481       .  S
C2911      C3550   1.493       .  S
C2912      C3047   1.485       .  S
C2913      C3057   1.496       .  S
H2914      O2915   0.966       .  S
O2915     Zr3363   2.342       .  S
O2915     Zr3390   2.345       .  S
O2915     Zr2936   2.339       .  S
H2916      O2917   0.966       .  S
O2917     Zr2935   2.336       .  S
O2917     Zr2937   2.344       .  S
O2918     Zr2934   2.443       .  S
O2918      C2941   1.293       .  A
O2919     Zr2935   2.448       .  S
O2919      C2942   1.293       .  A
O2920     Zr2936   2.452       .  S
O2920      C2943   1.295       .  A
O2921     Zr2937   2.432       .  S
O2921      C2944   1.291       .  A
O2922     Zr2937   2.427       .  S
O2922      C2945   1.290       .  A
O2923     Zr2936   2.445       .  S
O2923      C2946   1.294       .  A
O2924     Zr3394   2.444       .  S
O2924      C2947   1.295       .  A
O2925     Zr2938   2.440       .  S
O2925      C2948   1.290       .  A
O2926     Zr2936   2.430       .  S
O2926      C2947   1.288       .  A
O2927     Zr2937   2.456       .  S
O2927      C2948   1.297       .  A
O2928     Zr3390   2.421       .  S
O2928      C2943   1.288       .  A
O2929     Zr3391   2.440       .  S
O2929      C2946   1.292       .  A
O2930     Zr2935   2.433       .  S
O2930      C2945   1.291       .  A
O2931     Zr2934   2.445       .  S
O2931      C2944   1.293       .  A
O2932     Zr2938   2.452       .  S
O2932      C2941   1.295       .  A
O2933     Zr2938   2.451       .  S
O2933      C2942   1.295       .  A
Zr2934     O3384   2.434       .  S
Zr2934     O3371   2.345       .  S
Zr2934     O3396   2.340       .  S
Zr2934     O2952   2.344       .  S
Zr2935     O3385   2.414       .  S
Zr2935     O3365   2.341       .  S
Zr2935     O2939   2.336       .  S
Zr2935     O3406   2.350       .  S
Zr2936     O2940   2.338       .  S
Zr2936     O2950   2.340       .  S
Zr2937     O2939   2.340       .  S
Zr2937     O2952   2.345       .  S
Zr2938     O3380   2.441       .  S
Zr2938     O2939   2.344       .  S
Zr2938     O3396   2.339       .  S
Zr2938     O2952   2.347       .  S
Zr2938     O3406   2.345       .  S
O2940     Zr3390   2.341       .  S
O2940     Zr3394   2.339       .  S
C2941      C3533   1.485       .  S
C2942      C3543   1.486       .  S
C2943      C2967   1.475       .  S
C2944      C2977   1.475       .  S
C2945      C2984   1.473       .  S
C2946      C2957   1.484       .  S
C2947      C3034   1.496       .  S
C2948      C3067   1.501       .  S
H2949      O2950   0.966       .  S
O2950     Zr3391   2.346       .  S
O2950     Zr3394   2.344       .  S
H2951      O2952   0.966       .  S
C2953      C2954   1.403       .  A
C2953      C2958   1.397       .  A
C2953      H2960   1.084       .  S
C2954      C2955   1.414       .  A
C2955      C2956   1.401       .  A
C2955     Br2962   1.921       .  S
C2956      C2957   1.406       .  A
C2956      H2961   1.084       .  S
C2957      C2958   1.413       .  A
C2958     Br2959   1.920       .  S
C2963      C2964   1.404       .  A
C2963      C2968   1.400       .  A
C2963      H2970   1.084       .  S
C2964      C2965   1.409       .  A
C2965      C2966   1.396       .  A
C2965     Br2972   1.920       .  S
C2966      C2967   1.401       .  A
C2966      H2971   1.083       .  S
C2967      C2968   1.414       .  A
C2968     Br2969   1.923       .  S
C2973      C2974   1.405       .  A
C2973      C2978   1.402       .  A
C2973      H2980   1.084       .  S
C2974      C2975   1.408       .  A
C2975      C2976   1.397       .  A
C2975     Br2982   1.916       .  S
C2976      C2977   1.400       .  A
C2976      H2981   1.081       .  S
C2977      C2978   1.410       .  A
C2978     Br2979   1.918       .  S
C2983      C2984   1.401       .  A
C2983      C2988   1.397       .  A
C2983      H2990   1.084       .  S
C2984      C2985   1.409       .  A
C2985      C2986   1.402       .  A
C2985     Br2992   1.924       .  S
C2986      C2987   1.407       .  A
C2986      H2991   1.083       .  S
C2987      C2988   1.415       .  A
C2988     Br2989   1.922       .  S
C2993      C2994   1.408       .  A
C2993      C2998   1.401       .  A
C2993      H3000   1.083       .  S
C2994      C2995   1.414       .  A
C2995      C2996   1.396       .  A
C2995     Br3002   1.923       .  S
C2996      C2997   1.405       .  A
C2996      H3001   1.079       .  S
C2997      C2998   1.415       .  A
C2998     Br2999   1.923       .  S
C3003      C3004   1.406       .  A
C3003      C3008   1.403       .  A
C3003      H3010   1.083       .  S
C3004      C3005   1.419       .  A
C3005      C3006   1.406       .  A
C3005     Br3012   1.921       .  S
C3006      C3007   1.407       .  A
C3006      H3011   1.083       .  S
C3007      C3008   1.421       .  A
C3008     Br3009   1.924       .  S
C3013      C3014   1.407       .  A
C3013      C3018   1.402       .  A
C3013      H3020   1.084       .  S
C3014      C3015   1.412       .  A
C3015      C3016   1.396       .  A
C3015     Br3022   1.918       .  S
C3016      C3017   1.401       .  A
C3016      H3021   1.084       .  S
C3017      C3018   1.413       .  A
C3018     Br3019   1.920       .  S
C3023      C3024   1.406       .  A
C3023      C3028   1.402       .  A
C3023      H3030   1.083       .  S
C3024      C3025   1.414       .  A
C3025      C3026   1.398       .  A
C3025     Br3032   1.926       .  S
C3026      C3027   1.405       .  A
C3026      H3031   1.076       .  S
C3027      C3028   1.417       .  A
C3028     Br3029   1.921       .  S
C3033      C3034   1.406       .  A
C3033      C3038   1.398       .  A
C3033      H3040   1.083       .  S
C3034      C3035   1.420       .  A
C3035      C3036   1.401       .  A
C3035     Br3042   1.926       .  S
C3036      C3037   1.408       .  A
C3036      H3041   1.083       .  S
C3037      C3038   1.419       .  A
C3038     Br3039   1.925       .  S
C3043      C3044   1.404       .  A
C3043      C3048   1.391       .  A
C3043      H3050   1.083       .  S
C3044      C3045   1.414       .  A
C3045      C3046   1.397       .  A
C3045     Br3052   1.927       .  S
C3046      C3047   1.408       .  A
C3046      H3051   1.083       .  S
C3047      C3048   1.416       .  A
C3048     Br3049   1.925       .  S
C3053      C3054   1.403       .  A
C3053      C3058   1.396       .  A
C3053      H3060   1.078       .  S
C3054      C3055   1.419       .  A
C3055      C3056   1.404       .  A
C3055     Br3062   1.925       .  S
C3056      C3057   1.409       .  A
C3056      H3061   1.083       .  S
C3057      C3058   1.418       .  A
C3058     Br3059   1.926       .  S
C3063      C3064   1.406       .  A
C3063      C3068   1.403       .  A
C3063      H3070   1.083       .  S
C3064      C3065   1.421       .  A
C3065      C3066   1.399       .  A
C3065     Br3072   1.927       .  S
C3066      C3067   1.406       .  A
C3066      H3071   1.083       .  S
C3067      C3068   1.421       .  A
C3068     Br3069   1.922       .  S
C3073      C3530   1.403       .  A
C3073      C3078   1.400       .  A
C3073      H3080   1.082       .  S
C3074      C3529   1.405   1_554  A
C3074      C3075   1.416       .  A
C3075      C3076   1.405       .  A
C3075     Br3082   1.922       .  S
C3076      C3077   1.407       .  A
C3076      H3081   1.084       .  S
C3077      C3397   1.495       .  S
C3077      C3534   1.415   1_554  A
C3078      C3533   1.414       .  A
C3078     Br3079   1.922       .  S
C3083      C3084   1.408   1_554  A
C3083      C3088   1.406       .  A
C3083      H3090   1.084       .  S
C3084      C3541   1.415       .  A
C3085      C3540   1.412       .  A
C3085      C3086   1.402       .  A
C3085     Br3092   1.920       .  S
C3086      C3543   1.404       .  A
C3086      H3091   1.082       .  S
C3087      C3398   1.495       .  S
C3087      C3542   1.406   1_554  A
C3087      C3088   1.416       .  A
C3088     Br3089   1.922       .  S
C3093      C3094   1.404   1_556  A
C3093      C3098   1.399       .  A
C3093      H3100   1.084       .  S
C3094      C3367   1.484       .  S
C3094      C3551   1.414       .  A
C3095      C3550   1.417       .  A
C3095      C3096   1.400       .  A
C3095     Br3102   1.922       .  S
C3096      C3553   1.408       .  A
C3096      H3101   1.083       .  S
C3097      C3552   1.405       .  A
C3097      C3098   1.412   1_554  A
C3098     Br3099   1.920       .  S
C3103      C3104   1.405       .  A
C3103      C3108   1.406       .  A
C3103      H3110   1.084       .  S
C3104      C3366   1.484   1_556  S
C3104      C3561   1.411   1_556  A
C3105      C3560   1.409       .  A
C3105      C3106   1.402       .  A
C3105     Br3112   1.913       .  S
C3106      C3563   1.402       .  A
C3106      H3111   1.084       .  S
C3107      C3562   1.401   1_556  A
C3107      C3108   1.410       .  A
C3108     Br3109   1.917       .  S
C3113      C3118   1.400       .  A
C3113      H3120   1.084       .  S
C3114      C3115   1.419       .  A
C3115      C3116   1.398       .  A
C3115     Br3122   1.924       .  S
C3116      C3117   1.405       .  A
C3116      H3121   1.083       .  S
C3118     Br3119   1.923       .  S
C3123      C3124   1.406       .  A
C3123      C3128   1.401       .  A
C3123      H3130   1.083       .  S
C3125      C3126   1.398       .  A
C3125     Br3132   1.928       .  S
C3126      H3131   1.083       .  S
C3127      C3128   1.420       .  A
C3128     Br3129   1.925       .  S
C3133      C3138   1.398       .  A
C3133      H3140   1.083       .  S
C3134      C3135   1.410       .  A
C3135      C3136   1.402       .  A
C3135     Br3142   1.914       .  S
C3136      C3137   1.403       .  A
C3136      H3141   1.084       .  S
C3138     Br3139   1.925       .  S
C3143      C3144   1.408       .  A
C3143      C3148   1.402       .  A
C3143      H3150   1.083       .  S
C3145      C3146   1.402       .  A
C3145     Br3152   1.925       .  S
C3146      H3151   1.083       .  S
C3147      C3148   1.416       .  A
C3148     Br3149   1.926       .  S
C3153      C3154   1.406       .  A
C3153      C3158   1.398       .  A
C3153      H3160   1.084       .  S
C3155      C3156   1.402       .  A
C3155     Br3162   1.921       .  S
C3156      H3161   1.084       .  S
C3157      C3158   1.413       .  A
C3158     Br3159   1.925       .  S
C3163      C3164   1.404       .  A
C3163      C3168   1.400       .  A
C3163      H3170   1.084       .  S
C3165      C3166   1.396   1_655  A
C3165     Br3172   1.924       .  S
C3166      H3171   1.082   1_455  S
C3167      C3168   1.417       .  A
C3168     Br3169   1.916       .  S
C3173      C3174   1.405       .  A
C3173      C3178   1.402       .  A
C3173      H3180   1.084       .  S
C3175      C3176   1.403       .  A
C3175     Br3182   1.919       .  S
C3176      H3181   1.083       .  S
C3177      C3178   1.417       .  A
C3178     Br3179   1.920       .  S
C3183      C3184   1.401       .  A
C3183      C3188   1.396       .  A
C3183      H3190   1.084       .  S
C3185      C3186   1.402       .  A
C3185     Br3192   1.922       .  S
C3186      H3191   1.084       .  S
C3187      C3188   1.409       .  A
C3188     Br3189   1.918       .  S
O3193     Zr3229   2.435       .  S
O3193      C3204   1.291       .  A
O3194     Zr3228   2.441       .  S
O3194      C3205   1.293       .  A
O3195     Zr3201   2.459       .  S
O3195      C3206   1.295       .  A
O3196      C3207   1.294       .  A
O3197     Zr3231   2.442       .  S
O3197      C3207   1.293       .  A
O3198     Zr3230   2.448       .  S
O3198      C3206   1.293       .  A
O3199      C3205   1.291       .  A
O3200     Zr3201   2.436       .  S
O3200      C3204   1.291       .  A
Zr3201     O3203   2.340       .  S
O3203     Zr3229   2.341       .  S
O3203     Zr3230   2.343       .  S
C3204      C3643   1.465       .  S
C3205      C3613   1.482       .  S
C3206      C3563   1.481       .  S
C3207      C3540   1.487       .  S
H3208      O3209   0.966       .  S
O3209     Zr3228   2.345       .  S
H3210      O3211   0.967       .  S
O3211     Zr3231   2.340       .  S
O3212      C3235   1.291       .  A
O3213      C3236   1.290       .  A
O3214      C3237   1.286       .  A
O3215      C3238   1.289       .  A
O3216     Zr3231   2.435       .  S
O3216      C3239   1.290       .  A
O3217     Zr3230   2.422       .  S
O3217      C3240   1.287       .  A
O3218     Zr3232   2.438       .  S
O3218      C3241   1.290       .  A
O3219      C3242   1.293       .  A
O3220      C3241   1.296       .  A
O3221      C3242   1.293       .  A
O3222     Zr3228   2.454       .  S
O3222      C3237   1.296       .  A
O3223     Zr3229   2.455       .  S
O3223      C3240   1.296       .  A
O3224      C3239   1.295       .  A
O3225      C3238   1.296       .  A
O3226      C3235   1.295       .  A
O3227     Zr3232   2.446       .  S
O3227      C3236   1.294       .  A
Zr3232     O3244   2.350       .  S
C3235      C3620   1.494       .  S
C3236      C3630   1.486       .  S
C3237      C3580   1.491       .  S
C3238      C3570   1.494       .  S
C3239      C3603   1.492       .  S
C3240      C3593   1.494       .  S
C3241      C3553   1.496       .  S
C3242      C3530   1.483       .  S
H3243      O3244   0.967       .  S
H3245      O3246   0.967       .  S
O3247     Zr3283   2.426       .  S
O3247      C3258   1.289       .  A
O3248     Zr3282   2.441       .  S
O3248      C3259   1.294       .  A
O3249     Zr3255   2.451       .  S
O3249      C3260   1.295       .  A
O3250      C3261   1.291       .  A
O3251     Zr3285   2.451       .  S
O3251      C3261   1.295       .  A
O3252     Zr3284   2.431       .  S
O3252      C3260   1.291       .  A
O3253     Zr3255   2.436       .  S
O3253      C3259   1.291       .  A
O3254     Zr3255   2.437       .  S
O3254      C3258   1.291       .  A
Zr3255     O3257   2.337       .  S
Zr3255     O3263   2.337       .  S
O3256     Zr3285   2.341       .  S
O3257     Zr3283   2.336       .  S
O3257     Zr3284   2.336       .  S
C3258      C3640   1.464       .  S
C3259      C3610   1.483       .  S
C3260      C3470   1.481       .  S
C3261      C3450   1.478       .  S
H3262      O3263   0.966       .  S
O3263     Zr3282   2.345       .  S
O3263     Zr3284   2.347       .  S
H3264      O3265   0.966       .  S
O3265     Zr3285   2.344       .  S
O3266     Zr3282   2.428       .  S
O3266      C3289   1.289       .  A
O3267     Zr3283   2.425       .  S
O3267      C3290   1.289       .  A
O3268     Zr3284   2.427       .  S
O3268      C3291   1.288       .  A
O3269     Zr3285   2.444       .  S
O3269      C3292   1.292       .  A
O3270     Zr3285   2.431       .  S
O3270      C3293   1.292       .  A
O3271     Zr3284   2.448       .  S
O3271      C3294   1.295       .  A
O3272     Zr3286   2.439       .  S
O3272      C3295   1.292       .  A
O3273      C3296   1.293       .  A
O3274     Zr3284   2.448       .  S
O3274      C3295   1.294       .  A
O3275     Zr3285   2.445       .  S
O3275      C3296   1.295       .  A
O3276     Zr3282   2.458       .  S
O3276      C3291   1.298       .  A
O3277     Zr3283   2.433       .  S
O3277      C3294   1.290       .  A
O3278      C3293   1.289       .  A
O3279      C3292   1.296       .  A
O3280     Zr3286   2.451       .  S
O3280      C3289   1.296       .  A
O3281     Zr3286   2.447       .  S
O3281      C3290   1.295       .  A
Zr3282     O3288   2.349       .  S
Zr3283     O3298   2.338       .  S
Zr3284     O3288   2.342       .  S
Zr3284     O3298   2.330       .  S
Zr3285     O3287   2.338       .  S
Zr3285     O3300   2.336       .  S
Zr3286     O3288   2.337       .  S
Zr3286     O3298   2.339       .  S
C3289      C3623   1.492       .  S
C3290      C3633   1.484       .  S
C3291      C3510   1.498       .  S
C3292      C3520   1.502       .  S
C3293      C3493   1.490       .  S
C3294      C3500   1.490       .  S
C3295      C3480   1.480       .  S
C3296      C3460   1.498       .  S
H3297      O3298   0.965       .  S
H3299      O3300   0.966       .  S
O3301     Zr3337   2.437   1_565  S
O3301      C3312   1.290       .  A
O3302     Zr3336   2.425   1_545  S
O3302      C3313   1.288       .  A
O3303     Zr3309   2.423       .  S
O3303      C3314   1.289       .  A
O3304      C3315   1.294       .  A
O3305     Zr3339   2.447       .  S
O3305      C3315   1.293       .  A
O3306     Zr3338   2.463       .  S
O3306      C3314   1.297       .  A
O3307     Zr3309   2.453       .  S
O3307      C3313   1.296   1_565  A
O3308     Zr3309   2.462       .  S
O3308      C3312   1.297       .  A
Zr3309     O3311   2.344       .  S
Zr3309     O3317   2.348       .  S
O3310     Zr3339   2.339       .  S
O3311     Zr3337   2.339   1_565  S
O3311     Zr3338   2.341       .  S
C3314      C3420   1.479       .  S
C3315      C3410   1.490       .  S
H3316      O3317   0.966       .  S
O3317     Zr3336   2.338       .  S
O3317     Zr3338   2.342       .  S
H3318      O3319   0.966       .  S
O3319     Zr3339   2.346       .  S
O3320     Zr3336   2.429       .  S
O3320      C3343   1.289       .  A
O3321     Zr3337   2.453       .  S
O3321      C3344   1.293       .  A
O3322     Zr3338   2.438       .  S
O3322      C3345   1.292       .  A
O3323     Zr3339   2.448       .  S
O3323      C3346   1.294       .  A
O3324     Zr3339   2.441       .  S
O3324      C3347   1.292       .  A
O3325     Zr3338   2.434       .  S
O3325      C3348   1.290       .  A
O3326     Zr3340   2.423   1_565  S
O3326      C3349   1.288       .  A
O3327      C3350   1.292       .  A
O3328     Zr3338   2.458       .  S
O3328      C3349   1.297       .  A
O3329     Zr3339   2.444       .  S
O3329      C3350   1.293       .  A
O3330     Zr3336   2.455       .  S
O3330      C3345   1.295       .  A
O3331     Zr3337   2.462   1_565  S
O3331      C3348   1.298       .  A
O3332      C3347   1.293       .  A
O3333      C3346   1.291       .  A
O3334     Zr3340   2.441   1_565  S
O3334      C3343   1.293       .  A
O3335     Zr3340   2.457       .  S
O3335      C3344   1.296       .  A
Zr3336     O3342   2.333       .  S
Zr3337     O3352   2.342   1_545  S
Zr3338     O3342   2.335       .  S
Zr3338     O3352   2.353       .  S
Zr3339     O3341   2.341       .  S
Zr3339     O3354   2.347       .  S
Zr3340     O3342   2.346   1_545  S
Zr3340     O3352   2.348   1_545  S
C3345      C3483   1.484       .  S
C3346      C3473   1.482       .  S
C3347      C3453   1.478       .  S
C3348      C3463   1.500       .  S
C3349      C3430   1.492       .  S
C3350      C3443   1.477       .  S
H3351      O3352   0.966       .  S
H3353      O3354   0.966       .  S
O3355     Zr3391   2.465   1_556  S
O3355      C3366   1.297   1_556  A
O3356     Zr3390   2.443       .  S
O3356      C3367   1.292       .  A
O3357      C3368   1.296       .  A
O3358     Zr3363   2.429   1_556  S
O3358      C3369   1.288       .  A
O3359     Zr3393   2.457       .  S
O3359      C3369   1.297       .  A
O3360     Zr3392   2.435       .  S
O3360      C3368   1.290       .  A
O3361     Zr3363   2.452       .  S
O3361      C3367   1.295       .  A
O3362     Zr3363   2.447       .  S
O3362      C3366   1.293       .  A
Zr3363     O3364   2.341   1_554  S
Zr3363     O3373   2.346   1_554  S
O3364     Zr3390   2.342   1_556  S
O3364     Zr3393   2.343       .  S
O3365     Zr3392   2.337       .  S
C3368      C3503   1.496       .  S
C3369      C3513   1.499       .  S
H3370      O3371   0.966       .  S
O3371     Zr3392   2.340       .  S
H3372      O3373   0.966       .  S
O3373     Zr3391   2.342   1_556  S
O3373     Zr3393   2.342       .  S
O3374     Zr3390   2.451       .  S
O3374      C3397   1.294       .  A
O3375     Zr3391   2.447       .  S
O3375      C3398   1.293       .  A
O3376     Zr3392   2.458       .  S
O3376      C3399   1.296       .  A
O3377     Zr3393   2.429       .  S
O3377      C3400   1.289       .  A
O3378     Zr3393   2.435       .  S
O3378      C3401   1.292       .  A
O3379     Zr3392   2.458       .  S
O3379      C3402   1.297       .  A
O3380      C3403   1.294       .  A
O3381     Zr3394   2.436   1_556  S
O3381      C3404   1.290       .  A
O3382     Zr3392   2.436       .  S
O3382      C3403   1.290       .  A
O3383     Zr3393   2.460       .  S
O3383      C3404   1.298       .  A
O3384      C3399   1.291       .  A
O3385      C3402   1.286       .  A
O3386     Zr3391   2.437   1_556  S
O3386      C3401   1.291       .  A
O3387     Zr3390   2.436   1_556  S
O3387      C3400   1.293       .  A
O3388     Zr3394   2.462       .  S
O3388      C3397   1.297       .  A
O3389     Zr3394   2.464       .  S
O3389      C3398   1.298       .  A
Zr3390     O3408   2.336   1_554  S
Zr3391     O3395   2.346   1_554  S
Zr3392     O3396   2.341       .  S
Zr3392     O3406   2.345       .  S
Zr3393     O3395   2.341       .  S
Zr3393     O3408   2.341       .  S
Zr3394     O3395   2.345   1_554  S
Zr3394     O3408   2.345   1_554  S
C3399      C3423   1.484       .  S
C3400      C3433   1.489       .  S
C3401      C3440   1.474       .  S
C3402      C3413   1.485       .  S
C3403      C3490   1.493       .  S
C3404      C3523   1.500       .  S
H3405      O3406   0.966       .  S
H3407      O3408   0.966       .  S
C3409      C3410   1.408       .  A
C3409      C3414   1.401       .  A
C3409      H3416   1.084       .  S
C3410      C3411   1.415       .  A
C3411      C3412   1.396       .  A
C3411     Br3418   1.920       .  S
C3412      C3413   1.402       .  A
C3412      H3417   1.083       .  S
C3413      C3414   1.418       .  A
C3414     Br3415   1.926       .  S
C3419      C3420   1.405       .  A
C3419      C3424   1.400       .  A
C3419      H3426   1.084       .  S
C3420      C3421   1.408       .  A
C3421      C3422   1.401       .  A
C3421     Br3428   1.921       .  S
C3422      C3423   1.405       .  A
C3422      H3427   1.080       .  S
C3423      C3424   1.414       .  A
C3424     Br3425   1.923       .  S
C3429      C3430   1.405       .  A
C3429      C3434   1.396       .  A
C3429      H3436   1.083       .  S
C3430      C3431   1.420       .  A
C3431      C3432   1.399       .  A
C3431     Br3438   1.924       .  S
C3432      C3433   1.406       .  A
C3432      H3437   1.084       .  S
C3433      C3434   1.417       .  A
C3434     Br3435   1.924       .  S
C3439      C3440   1.402       .  A
C3439      C3444   1.396       .  A
C3439      H3446   1.084       .  S
C3440      C3441   1.411       .  A
C3441      C3442   1.401       .  A
C3441     Br3448   1.921       .  S
C3442      C3443   1.406       .  A
C3442      H3447   1.084       .  S
C3443      C3444   1.410       .  A
C3444     Br3445   1.920       .  S
C3449      C3450   1.404       .  A
C3449      C3454   1.400       .  A
C3449      H3456   1.083       .  S
C3450      C3451   1.412       .  A
C3451      C3452   1.398       .  A
C3451     Br3458   1.922       .  S
C3452      C3453   1.402       .  A
C3452      H3457   1.080       .  S
C3453      C3454   1.410       .  A
C3454     Br3455   1.920       .  S
C3459      C3460   1.407       .  A
C3459      C3464   1.400       .  A
C3459      H3466   1.083       .  S
C3460      C3461   1.417       .  A
C3461      C3462   1.402       .  A
C3461     Br3468   1.919       .  S
C3462      C3463   1.408       .  A
C3462      H3467   1.083       .  S
C3463      C3464   1.421       .  A
C3464     Br3465   1.924       .  S
C3469      C3470   1.403       .  A
C3469      C3474   1.399       .  A
C3469      H3476   1.084       .  S
C3470      C3471   1.413       .  A
C3471      C3472   1.400       .  A
C3471     Br3478   1.923       .  S
C3472      C3473   1.405       .  A
C3472      H3477   1.084       .  S
C3473      C3474   1.414       .  A
C3474     Br3475   1.923       .  S
C3479      C3480   1.402       .  A
C3479      C3484   1.400       .  A
C3479      H3486   1.084       .  S
C3480      C3481   1.412       .  A
C3481      C3482   1.402       .  A
C3481     Br3488   1.921       .  S
C3482      C3483   1.405       .  A
C3482      H3487   1.082       .  S
C3483      C3484   1.413       .  A
C3484     Br3485   1.920       .  S
C3489      C3490   1.409       .  A
C3489      C3494   1.398       .  A
C3489      H3496   1.083       .  S
C3490      C3491   1.418       .  A
C3491      C3492   1.396       .  A
C3491     Br3498   1.925       .  S
C3492      C3493   1.407       .  A
C3492      H3497   1.083       .  S
C3493      C3494   1.417       .  A
C3494     Br3495   1.926       .  S
C3499      C3500   1.403       .  A
C3499      C3504   1.398       .  A
C3499      H3506   1.083       .  S
C3500      C3501   1.415       .  A
C3501      C3502   1.403       .  A
C3501     Br3508   1.924       .  S
C3502      C3503   1.408       .  A
C3502      H3507   1.082       .  S
C3503      C3504   1.419       .  A
C3504     Br3505   1.922       .  S
C3509      C3510   1.406       .  A
C3509      C3514   1.399       .  A
C3509      H3516   1.083       .  S
C3510      C3511   1.422       .  A
C3511      C3512   1.401       .  A
C3511     Br3518   1.927       .  S
C3512      C3513   1.407       .  A
C3512      H3517   1.083       .  S
C3513      C3514   1.421       .  A
C3514     Br3515   1.926       .  S
C3519      C3520   1.409       .  A
C3519      C3524   1.404       .  A
C3519      H3526   1.083       .  S
C3520      C3521   1.419       .  A
C3521      C3522   1.400       .  A
C3521     Br3528   1.922       .  S
C3522      C3523   1.406       .  A
C3522      H3527   1.083       .  S
C3523      C3524   1.421       .  A
C3524     Br3525   1.926       .  S
C3529      C3534   1.404       .  A
C3529      H3536   1.083       .  S
C3530      C3531   1.412       .  A
C3531      C3532   1.403       .  A
C3531     Br3538   1.922       .  S
C3532      C3533   1.406       .  A
C3532      H3537   1.084       .  S
C3534     Br3535   1.920       .  S
C3539      C3540   1.407       .  A
C3539      C3544   1.403       .  A
C3539      H3546   1.084       .  S
C3541      C3542   1.405       .  A
C3541     Br3548   1.920       .  S
C3542      H3547   1.084       .  S
C3543      C3544   1.412       .  A
C3544     Br3545   1.922       .  S
C3549      C3550   1.406       .  A
C3549      C3554   1.399       .  A
C3549      H3556   1.083       .  S
C3551      C3552   1.401       .  A
C3551     Br3558   1.921       .  S
C3552      H3557   1.084       .  S
C3553      C3554   1.419       .  A
C3554     Br3555   1.922       .  S
C3559      C3560   1.404       .  A
C3559      C3564   1.405       .  A
C3559      H3566   1.084       .  S
C3561      C3562   1.402       .  A
C3561     Br3568   1.914       .  S
C3562      H3567   1.084       .  S
C3563      C3564   1.411       .  A
C3564     Br3565   1.917       .  S
C3569      C3574   1.404       .  A
C3569      H3576   1.083       .  S
C3570      C3571   1.419       .  A
C3571      C3572   1.397       .  A
C3571     Br3578   1.920       .  S
C3572      C3573   1.402       .  A
C3572      H3577   1.083       .  S
C3574     Br3575   1.922       .  S
C3579      C3580   1.404       .  A
C3579      C3584   1.399       .  A
C3579      H3586   1.083       .  S
C3581      C3582   1.398       .  A
C3581     Br3588   1.926       .  S
C3582      H3587   1.083   1_565  S
C3583      C3584   1.419       .  A
C3584     Br3585   1.924       .  S
C3589      C3594   1.400       .  A
C3589      H3596   1.083       .  S
C3590      C3591   1.420       .  A
C3591      C3592   1.399       .  A
C3591     Br3598   1.926       .  S
C3592      C3593   1.406       .  A
C3592      H3597   1.083       .  S
C3594     Br3595   1.924       .  S
C3599      C3600   1.404       .  A
C3599      C3604   1.398       .  A
C3599      H3606   1.083       .  S
C3601      C3602   1.399       .  A
C3601     Br3608   1.923       .  S
C3602      H3607   1.083       .  S
C3603      C3604   1.417       .  A
C3604     Br3605   1.922       .  S
C3609      C3610   1.404       .  A
C3609      C3614   1.398       .  A
C3609      H3616   1.084       .  S
C3611      C3612   1.400       .  A
C3611     Br3618   1.921       .  S
C3612      H3617   1.084       .  S
C3613      C3614   1.413       .  A
C3614     Br3615   1.921       .  S
C3619      C3620   1.406       .  A
C3619      C3624   1.400       .  A
C3619      H3626   1.083       .  S
C3621      C3622   1.397       .  A
C3621     Br3628   1.925       .  S
C3622      H3627   1.083       .  S
C3623      C3624   1.419       .  A
C3624     Br3625   1.921       .  S
C3629      C3630   1.406       .  A
C3629      C3634   1.400       .  A
C3629      H3636   1.080       .  S
C3631      C3632   1.395       .  A
C3631     Br3638   1.923       .  S
C3632      H3637   1.080       .  S
C3633      C3634   1.415       .  A
C3634     Br3635   1.925       .  S
C3639      C3640   1.401       .  A
C3639      C3644   1.396       .  A
C3639      H3646   1.084       .  S
C3641      C3642   1.401       .  A
C3641     Br3648   1.924       .  S
C3642      H3647   1.084       .  S
C3643      C3644   1.407       .  A
C3644     Br3645   1.918       .  S
