geometry optimzed in LAMMPS
_audit_creation_date              2020-11-30 
_audit_creation_method            'lammps2cif' 
_symmetry_space_group_name_H-M    'P1' 
_symmetry_Int_Tables_number       1 
_symmetry_cell_setting            triclinic 
loop_ 
_symmetry_equiv_pos_as_xyz 
  x,y,z 
_cell_length_a                    44.81496261 
_cell_length_b                    45.79359219125463 
_cell_length_c                    46.84795944287785 
_cell_angle_alpha                 90.3636312118752 
_cell_angle_beta                  89.79860233658904 
_cell_angle_gamma                 119.23685259698352 
loop_ 
_atom_site_label 
_atom_site_type_symbol 
_atom_site_fract_x 
_atom_site_fract_y 
_atom_site_fract_z 
_atom_site_charge 
C1          C  0.03368770  0.68007966  0.33466612     0.79800
N2          N  0.01142208  0.68026123  0.31501870    -0.78500
C3          C  0.01961607  0.70842912  0.29961259     0.82300
N4          N  0.05026641  0.73644953  0.30433380    -0.78400
C5          C  0.07254303  0.73654890  0.32406488     0.82400
N6          N  0.06396391  0.70830793  0.33895131    -0.80100
C7          C  0.30050045  0.94403501  0.35275192     0.79800
N8          N  0.30585589  0.97092304  0.33660634    -0.78500
C9          C  0.28174855  0.96850577  0.31780506     0.82300
N10         N  0.25254106  0.93909039  0.31504702    -0.78400
C11         C  0.24661867  0.91191946  0.33046788     0.82400
N12         N  0.27068376  0.91443873  0.34956968    -0.80100
C13         C  0.94299809  0.32198356  0.64802581     0.79800
N14         N  0.96848386  0.32698311  0.66637698    -0.78500
C15         C  0.96551360  0.30219014  0.68411042     0.82300
N16         N  0.93625533  0.27180494  0.68322337    -0.78400
C17         C  0.91042230  0.26649114  0.66481924     0.82400
N18         N  0.91428088  0.29174003  0.64748557    -0.80100
C19         C  0.71167909  0.02808037  0.69164645     0.79800
N20         N  0.74048802  0.05827514  0.69214852    -0.78500
C21         C  0.74524964  0.08280376  0.67349299     0.82300
N22         N  0.72030174  0.07673071  0.65383203    -0.78400
C23         C  0.69116860  0.04624607  0.65300572     0.82400
N24         N  0.68730135  0.02235163  0.67201617    -0.80100
O25         O  0.54057772  0.03414470  0.46848167    -0.74800
O26         O  0.48373611  0.04267510  0.52626805    -0.74800
O27         O  0.54741254  0.04943391  0.52494354    -0.74900
O28         O  0.47755261  0.02864768  0.46957837    -0.74900
O29         O  0.45391452  0.97431217  0.47925048    -0.74900
O30         O  0.52550978  0.99534282  0.53500132    -0.74900
O31         O  0.46180776  0.98850060  0.53612844    -0.74800
O32         O  0.51705787  0.97990405  0.47862808    -0.74900
Ni33       Ni  0.51308369  0.04063083  0.49697339     1.25400
Ni34       Ni  0.48874987  0.98259184  0.50761739     1.25400
C35         C  0.53804620  0.00529450  0.46415184     0.87400
C36         C  0.46345867  0.01677259  0.54083095     0.87300
C37         C  0.54842726  0.02607886  0.53900280     0.87300
C38         C  0.45425205  0.99841308  0.46503290     0.87500
O39         O  0.98931247  0.53165678  0.46211649    -0.74800
O40         O  0.97126581  0.47223555  0.52547937    -0.74800
O41         O  0.97897817  0.53448607  0.51907627    -0.74900
O42         O  0.98144903  0.46949755  0.46868870    -0.74900
O43         O  0.03730184  0.49138851  0.47674162    -0.74900
O44         O  0.03499316  0.55701924  0.52661984    -0.74900
O45         O  0.02726086  0.49515679  0.53345871    -0.74800
O46         O  0.04520355  0.55347332  0.46986954    -0.74900
Ni47       Ni  0.97825348  0.50120575  0.49357333     1.25400
Ni48       Ni  0.03816060  0.52505710  0.50190697     1.25400
C49         C  0.02038375  0.55235340  0.45548359     0.87400
C50         C  0.99635242  0.47392947  0.53991695     0.87300
C51         C  0.00648135  0.55636795  0.53133309     0.87300
C52         C  0.00974936  0.46956708  0.46449235     0.87500
C53         C  0.63091280  0.98325675  0.99295900     0.79800
N54         N  0.60002525  0.98237447  0.99422425    -0.78500
C55         C  0.59532302  0.00313968  0.01239316     0.82300
N56         N  0.62170159  0.02474303  0.02894002    -0.78400
C57         C  0.65243994  0.02596964  0.02800008     0.82400
N58         N  0.65693641  0.00507092  0.01006084    -0.80100
C59         C  0.37968019  0.01466883  0.02514533     0.79800
N60         N  0.40879882  0.01248873  0.02321874    -0.78500
C61         C  0.41186756  0.99232038  0.00338745     0.82300
N62         N  0.38543347  0.97434456  0.98533409    -0.78400
C63         C  0.35617757  0.97629952  0.98690802     0.82400
N64         N  0.35348877  0.99650164  0.00688825    -0.80100
C65         C  0.01194145  0.36262469  0.99264906     0.79800
N66         N  0.01041846  0.39159464  0.99057483    -0.78500
C67         C  0.98948550  0.39734806  0.00810107     0.82300
N68         N  0.97011965  0.37386222  0.02757237    -0.78400
C69         C  0.97135222  0.34502567  0.03008033     0.82400
N70         N  0.99238697  0.33954646  0.01259066    -0.80100
C71         C  0.98328433  0.61243935  0.00871800     0.79800
N72         N  0.00632275  0.63850040  0.99247572    -0.78500
C73         C  0.02949595  0.63488397  0.97593554     0.82300
N74         N  0.02914482  0.60508069  0.97568360    -0.78400
C75         C  0.00641321  0.57895092  0.99147284     0.82400
N76         N  0.98364096  0.58287033  0.00797872    -0.80100
C77         C  0.04144923  0.33858489  0.37381398     0.79800
N78         N  0.07019038  0.33556708  0.37253724    -0.78500
C79         C  0.07060981  0.31053185  0.35714141     0.82300
N80         N  0.04201291  0.28845873  0.34312853    -0.78400
C81         C  0.01323012  0.29107587  0.34400301     0.82400
N82         N  0.01302968  0.31636557  0.35919638    -0.80100
C83         C  0.28832018  0.30645910  0.32453643     0.79800
N84         N  0.31746170  0.33098822  0.33681720    -0.78500
C85         C  0.31601935  0.35408480  0.35430467     0.82300
N86         N  0.28550884  0.35232006  0.35965104    -0.78400
C87         C  0.25633418  0.32797862  0.34798375     0.82400
N88         N  0.25786815  0.30512594  0.33030498    -0.80100
O89         O  0.35518401  0.20237048  0.20202689    -0.74800
O90         O  0.36100524  0.14466376  0.14574518    -0.74800
O91         O  0.35955557  0.20294776  0.14422522    -0.74900
O92         O  0.35635929  0.14371419  0.20319667    -0.74900
O93         O  0.29952886  0.11591781  0.19991054    -0.74900
O94         O  0.30272271  0.17504948  0.14108804    -0.74900
O95         O  0.30418544  0.11664844  0.14227888    -0.74800
O96         O  0.29833709  0.17455711  0.19905363    -0.74900
Ni97       Ni  0.36001649  0.17447658  0.17392920     1.25400
Ni98       Ni  0.29915495  0.14457486  0.17049933     1.25400
C99         C  0.32592786  0.19802680  0.20999612     0.87400
C100        C  0.33365067  0.12104762  0.13477936     0.87300
C101        C  0.33174759  0.19855235  0.13264356     0.87300
C102        C  0.32730099  0.11969855  0.21103263     0.87500
C103        C  0.68730263  0.70327971  0.30915214     0.79800
N104        N  0.69036846  0.73437415  0.30892058    -0.78500
C105        C  0.67344585  0.74308385  0.32834327     0.82300
N106        N  0.65332199  0.72032180  0.34803510    -0.78400
C107        C  0.65004836  0.68928109  0.34871003     0.82400
N108        N  0.66712709  0.68087980  0.32920001    -0.80100
C109        C  0.64279492  0.94774956  0.36168757     0.79800
N110        N  0.66449330  0.97207370  0.34366769    -0.78500
C111        C  0.68605350  0.96687510  0.32655274     0.82300
N112        N  0.68569581  0.93701633  0.32754032    -0.78400
C113        C  0.66401797  0.91242914  0.34533874     0.82400
N114        N  0.64275289  0.91808686  0.36231322    -0.80100
O115        O  0.82023589  0.70652848  0.16867948    -0.74800
O116        O  0.87210297  0.68977214  0.11279877    -0.74800
O117        O  0.81279311  0.69240275  0.11188996    -0.74900
O118        O  0.87879983  0.70259025  0.17003068    -0.74900
O119        O  0.84817114  0.64799325  0.17860682    -0.74900
O120        O  0.78329686  0.63793746  0.12138200    -0.74900
O121        O  0.84272511  0.63511446  0.12158785    -0.74800
O122        O  0.78987722  0.65212758  0.17827293    -0.74900
Ni123      Ni  0.84703290  0.69973919  0.14050773     1.25400
Ni124      Ni  0.81496348  0.64136885  0.15024768     1.25400
C125        C  0.79668409  0.68247680  0.18283391     0.87400
C126        C  0.86633942  0.65995637  0.10787515     0.87300
C127        C  0.78696927  0.66327597  0.10719194     0.87300
C128        C  0.87401945  0.67658673  0.18407333     0.87500
O129        O  0.82152260  0.12132338  0.15228190    -0.74800
O130        O  0.87773419  0.17498617  0.21392356    -0.74800
O131        O  0.81940201  0.11588771  0.20992826    -0.74900
O132        O  0.87999634  0.18053112  0.15612814    -0.74900
O133        O  0.84956799  0.20704430  0.15882208    -0.74900
O134        O  0.78925286  0.14266212  0.21296307    -0.74900
O135        O  0.84783571  0.20208023  0.21651411    -0.74800
O136        O  0.79126252  0.14799690  0.15530694    -0.74900
Ni137      Ni  0.85077512  0.14726708  0.18300162     1.25400
Ni138      Ni  0.81841179  0.17589818  0.18601353     1.25400
C139        C  0.79713993  0.12598013  0.14351067     0.87400
C140        C  0.87199715  0.19721403  0.22548154     0.87300
C141        C  0.79435600  0.11855216  0.22036857     0.87300
C142        C  0.87445831  0.20421073  0.14823066     0.87500
C143        C  0.34997630  0.35472333  0.97580846     0.79800
N144        N  0.38051271  0.38375398  0.97370984    -0.78500
C145        C  0.40748019  0.38884692  0.99055764     0.82300
N146        N  0.40348358  0.36487723  0.00936947    -0.78400
C147        C  0.37348910  0.33611218  0.01195053     0.82400
N148        N  0.34676492  0.33116617  0.99513957    -0.80100
C149        C  0.62681897  0.60679443  0.00121085     0.79800
N150        N  0.62920980  0.63277219  0.98536831    -0.78500
C151        C  0.60331345  0.62831705  0.96759274     0.82300
N152        N  0.57517400  0.59776358  0.96578265    -0.78400
C153        C  0.57211739  0.57155711  0.98117709     0.82400
N154        N  0.59807868  0.57618357  0.99896723    -0.80100
C155        C  0.96707431  0.67349815  0.63460395     0.79800
N156        N  0.93861367  0.67697317  0.63460166    -0.78500
C157        C  0.93612445  0.69934425  0.65218636     0.82300
N158        N  0.96231392  0.71820473  0.67003683    -0.78400
C159        C  0.99074790  0.71487838  0.67072891     0.82400
N160        N  0.99307809  0.69237699  0.65298330    -0.80100
C161        C  0.71406663  0.69601330  0.68336803     0.79800
N162        N  0.74490364  0.69740791  0.67935071    -0.78500
C163        C  0.74790800  0.67587607  0.66096837     0.82300
N164        N  0.71990097  0.65291330  0.64684354    -0.78400
C165        C  0.68914119  0.65122322  0.65034175     0.82400
N166        N  0.68623323  0.67293667  0.66853471    -0.80100
O167        O  0.61669180  0.78233036  0.85691395    -0.74800
O168        O  0.62710935  0.84746906  0.80060236    -0.74800
O169        O  0.63021798  0.78995852  0.80015379    -0.74900
O170        O  0.61275066  0.83955824  0.85740538    -0.74900
O171        O  0.66844880  0.86864659  0.86703707    -0.74900
O172        O  0.68604209  0.81846897  0.80939230    -0.74900
O173        O  0.68281939  0.87614172  0.81033472    -0.74800
O174        O  0.67247051  0.81161074  0.86623953    -0.74900
Ni175      Ni  0.61971725  0.81381435  0.82843770     1.25400
Ni176      Ni  0.67941576  0.84475979  0.83858374     1.25400
C177        C  0.64303995  0.78632849  0.87087959     0.87400
C178        C  0.65688498  0.87255136  0.79612528     0.87300
C179        C  0.66077760  0.79586700  0.79516078     0.87300
C180        C  0.63758333  0.86217142  0.87185026     0.87500
C181        C  0.34803980  0.05197237  0.65139682     0.79800
N182        N  0.34373574  0.07929947  0.65266291    -0.78500
C183        C  0.32221206  0.08146976  0.67186839     0.82300
N184        N  0.30470608  0.05571921  0.69005222    -0.78400
C185        C  0.30857259  0.02803415  0.68929905     0.82400
N186        N  0.33037791  0.02627060  0.66988588    -0.80100
C187        C  0.31019168  0.29507944  0.67791708     0.79800
N188        N  0.30918321  0.26473863  0.67755059    -0.78500
C189        C  0.33105672  0.25983778  0.66039463     0.82300
N190        N  0.35381590  0.28542874  0.64409080    -0.78400
C191        C  0.35511314  0.31550247  0.64421395     0.82400
N192        N  0.33315720  0.32015318  0.66104874    -0.80100
O193        O  0.14747799  0.36656288  0.85202677    -0.74800
O194        O  0.19206068  0.34116876  0.79462369    -0.74800
O195        O  0.13243716  0.34334066  0.79745850    -0.74900
O196        O  0.20721591  0.36458097  0.84896282    -0.74900
O197        O  0.18063168  0.31227843  0.86508843    -0.74900
O198        O  0.10566630  0.29102340  0.81352286    -0.74900
O199        O  0.16538404  0.28884712  0.81075215    -0.74800
O200        O  0.12101263  0.31424898  0.86818448    -0.74900
Ni201      Ni  0.17070936  0.35574679  0.82269597     1.25400
Ni202      Ni  0.14219084  0.29975335  0.83993608     1.25400
C203        C  0.12686974  0.34456376  0.86965347     0.87400
C204        C  0.18645298  0.31090038  0.79344159     0.87300
C205        C  0.10659960  0.31371523  0.79696067     0.87300
C206        C  0.20648376  0.34193009  0.86540705     0.87500
O207        O  0.19222081  0.87402881  0.80717925    -0.74800
O208        O  0.13698495  0.81081732  0.86343926    -0.74800
O209        O  0.19880356  0.86713282  0.86369142    -0.74900
O210        O  0.13106251  0.81734639  0.80648444    -0.74900
O211        O  0.15682369  0.78713940  0.79770043    -0.74900
O212        O  0.22445093  0.83710547  0.85368025    -0.74900
O213        O  0.16269952  0.78058117  0.85472938    -0.74800
O214        O  0.21824039  0.84439539  0.79708638    -0.74900
Ni215      Ni  0.16383123  0.84334855  0.83553040     1.25400
Ni216      Ni  0.19143405  0.81118385  0.82547777     1.25400
C217        C  0.21436641  0.87005545  0.79288355     0.87400
C218        C  0.14061651  0.78534091  0.86861746     0.87300
C219        C  0.22310135  0.86041026  0.86782739     0.87300
C220        C  0.13298581  0.79408661  0.79253865     0.87500
O221        O  0.45973813  0.48711179  0.52756922    -0.74800
O222        O  0.51968229  0.54856272  0.47178666    -0.74800
O223        O  0.46161321  0.48894766  0.46983353    -0.74900
O224        O  0.51790020  0.54682740  0.52951589    -0.74900
O225        O  0.54859006  0.52049019  0.52878527    -0.74900
O226        O  0.49193824  0.46223651  0.46937878    -0.74900
O227        O  0.55015659  0.52200854  0.47085814    -0.74800
O228        O  0.49057042  0.46092388  0.52708193    -0.74900
Ni229      Ni  0.48864255  0.51879275  0.49966978     1.25400
Ni230      Ni  0.52144558  0.49051138  0.49902010     1.25400
C231        C  0.46532704  0.46387705  0.53660342     0.87400
C232        C  0.54467522  0.54537849  0.46198009     0.87300
C233        C  0.46732713  0.46602896  0.45979688     0.87300
C234        C  0.54252067  0.54306732  0.53911504     0.87500
C235        C  0.38015794  0.34251147  0.62586544    -0.05600
C236        C  0.40906336  0.34111681  0.61587758    -0.05600
C237        C  0.43202132  0.36529500  0.59723323    -0.23700
C238        C  0.42627228  0.39110751  0.58793675     0.18500
C239        C  0.39757462  0.39310395  0.59809516     0.15700
C240        C  0.37485160  0.36897235  0.61726487    -0.18800
C241        C  0.39176669  0.41881205  0.58843294    -0.20600
C242        C  0.41392048  0.44201154  0.56858683    -0.13100
C243        C  0.44233587  0.43998896  0.55817832     0.03500
C244        C  0.44848811  0.41458134  0.56824011    -0.25300
H245        H  0.41390049  0.32115111  0.62239479     0.08600
H246        H  0.45395483  0.36348717  0.58973575     0.12200
H247        H  0.35257915  0.37019800  0.62473031     0.12100
H248        H  0.36991080  0.42074087  0.59594807     0.11900
H249        H  0.40862507  0.46139562  0.56122666     0.12400
H250        H  0.47030660  0.41271865  0.56047490     0.14400
C251        C  0.28733703  0.30171792  0.69677574    -0.05600
C252        C  0.28922057  0.33334142  0.69612294    -0.05600
C253        C  0.26920573  0.34092062  0.71427263    -0.23700
C254        C  0.24674536  0.31709647  0.73358385     0.18500
C255        C  0.24400683  0.28501179  0.73428956     0.15700
C256        C  0.26428107  0.27746139  0.71585889    -0.18800
C257        C  0.22134689  0.26126514  0.75369971    -0.20600
C258        C  0.20213162  0.26943757  0.77250074    -0.13100
C259        C  0.20517596  0.30152924  0.77229942     0.03500
C260        C  0.22737792  0.32510735  0.75246210    -0.25300
H261        H  0.30649692  0.35261190  0.68168365     0.08600
H262        H  0.27156554  0.36560588  0.71337235     0.12200
H263        H  0.26240413  0.25296595  0.71666550     0.12100
H264        H  0.21876400  0.23649278  0.75458025     0.11900
H265        H  0.18526691  0.25073760  0.78753264     0.12400
H266        H  0.23001121  0.34992448  0.75193917     0.14400
C267        C  0.33125176  0.22749455  0.65900402    -0.05600
C268        C  0.35402370  0.22434944  0.64001762    -0.05600
C269        C  0.35605353  0.19504972  0.63856535    -0.23700
C270        C  0.33539390  0.16804057  0.65606343     0.18500
C271        C  0.31195444  0.17031572  0.67498459     0.15700
C272        C  0.30990015  0.20006680  0.67631526    -0.18800
C273        C  0.29138957  0.14290423  0.69242100    -0.20600
C274        C  0.29448136  0.11389239  0.69138567    -0.13100
C275        C  0.31809050  0.11170881  0.67280923     0.03500
C276        C  0.33822973  0.13894692  0.65504191    -0.25300
H277        H  0.37074137  0.24474084  0.62620482     0.08600
H278        H  0.37406993  0.19365856  0.62389070     0.12200
H279        H  0.29217005  0.20197298  0.69096161     0.12100
H280        H  0.27315547  0.14399173  0.70700449     0.11900
H281        H  0.27845331  0.09322946  0.70522797     0.12400
H282        H  0.35653138  0.13778884  0.64054625     0.14400
C283        C  0.23544569  0.89603669  0.77161687    -0.05600
C284        C  0.26242338  0.89544571  0.75666081    -0.05600
C285        C  0.28233565  0.92096791  0.73727078    -0.23700
C286        C  0.27558763  0.94750019  0.73253890     0.18500
C287        C  0.24847061  0.94807406  0.74750697     0.15700
C288        C  0.22870986  0.92253075  0.76669770    -0.18800
C289        C  0.24143148  0.97429564  0.74325850    -0.20600
C290        C  0.26111330  0.99996155  0.72440512    -0.13100
C291        C  0.28825309  0.00003223  0.70916928     0.03500
C292        C  0.29534333  0.97350057  0.71328432    -0.25300
H293        H  0.26828239  0.87541661  0.76008955     0.08600
H294        H  0.30303781  0.92002480  0.72609442     0.12200
H295        H  0.20804839  0.92350047  0.77794482     0.12100
H296        H  0.22069540  0.97501858  0.75458112     0.11900
H297        H  0.25477519  0.01977060  0.72168136     0.12400
H298        H  0.31622074  0.97321104  0.70180128     0.14400
C299        C  0.65971591  0.62551358  0.63420501    -0.05600
C300        C  0.65918485  0.59536102  0.62724441    -0.05600
C301        C  0.63468765  0.57239396  0.60868840    -0.23700
C302        C  0.61049964  0.57935144  0.59637427     0.18500
C303        C  0.60977847  0.60894719  0.60399847     0.15700
C304        C  0.63421355  0.63176341  0.62326674    -0.18800
C305        C  0.58549617  0.61570065  0.59130524    -0.20600
C306        C  0.56303669  0.59394314  0.57059892    -0.13100
C307        C  0.56448113  0.56508048  0.56228562     0.03500
C308        C  0.58784397  0.55764957  0.57579807    -0.25300
H309        H  0.67837483  0.58987536  0.63567865     0.08600
H310        H  0.63539533  0.54970714  0.60323851     0.12200
H311        H  0.63458021  0.65504518  0.62842654     0.12100
H312        H  0.58440047  0.63814869  0.59688771     0.11900
H313        H  0.54507838  0.60012478  0.56062822     0.12400
H314        H  0.58898535  0.53529097  0.56986052     0.14400
C315        C  0.66632144  0.77607938  0.77255067    -0.05600
C316        C  0.63869431  0.75413593  0.75524199    -0.05600
C317        C  0.64284311  0.73483030  0.73410013    -0.23700
C318        C  0.67471953  0.73687400  0.72978478     0.18500
C319        C  0.70285958  0.75888690  0.74681835     0.15700
C320        C  0.69855392  0.77847006  0.76806656    -0.18800
C321        C  0.73468739  0.76067053  0.74239058    -0.20600
C322        C  0.73845382  0.74064283  0.72153758    -0.13100
C323        C  0.71049381  0.71841274  0.70463056     0.03500
C324        C  0.67869889  0.71695186  0.70885596    -0.25300
H325        H  0.61361625  0.75179184  0.75801016     0.08600
H326        H  0.62101711  0.71814160  0.72122212     0.12200
H327        H  0.72009411  0.79520674  0.78120901     0.12100
H328        H  0.75660117  0.77734939  0.75518885     0.11900
H329        H  0.76328736  0.74237074  0.71888654     0.12400
H330        H  0.65684364  0.70004986  0.69609442     0.14400
C331        C  0.90440864  0.70170874  0.65345007    -0.05600
C332        C  0.90440153  0.72945489  0.66651964    -0.05600
C333        C  0.87395305  0.73048318  0.67000709    -0.23700
C334        C  0.84290326  0.70361112  0.66077486     0.18500
C335        C  0.84279775  0.67594642  0.64705908     0.15700
C336        C  0.87350295  0.67530846  0.64325012    -0.18800
C337        C  0.81187697  0.64898825  0.63790991    -0.20600
C338        C  0.78126982  0.64922376  0.64250139    -0.13100
C339        C  0.78087565  0.67641476  0.65637973     0.03500
C340        C  0.81193849  0.70368962  0.66537150    -0.25300
H341        H  0.92793627  0.75025982  0.67437684     0.08600
H342        H  0.87462285  0.75200740  0.68038824     0.12200
H343        H  0.87309977  0.65368758  0.63325605     0.12100
H344        H  0.81130607  0.62755008  0.62741443     0.11900
H345        H  0.75777786  0.62778696  0.63536495     0.12400
H346        H  0.81205179  0.72488852  0.67590329     0.14400
C347        C  0.01765744  0.73459832  0.69191536    -0.05600
C348        C  0.02000728  0.76417285  0.70326640    -0.05600
C349        C  0.04300803  0.78166062  0.72513817    -0.23700
C350        C  0.06398792  0.76980040  0.73629057     0.18500
C351        C  0.06224753  0.74034273  0.72482937     0.15700
C352        C  0.03928523  0.72304776  0.70254065    -0.18800
C353        C  0.08322871  0.72850691  0.73611644    -0.20600
C354        C  0.10588669  0.74582220  0.75832831    -0.13100
C355        C  0.10788792  0.77520666  0.76981632     0.03500
C356        C  0.08663337  0.78693284  0.75873507    -0.25300
H357        H  0.00373738  0.77370194  0.69538226     0.08600
H358        H  0.04408522  0.80424868  0.73355049     0.12200
H359        H  0.03749339  0.70012831  0.69415136     0.12100
H360        H  0.08218667  0.70592351  0.72773774     0.11900
H361        H  0.12191005  0.73616076  0.76651869     0.12400
H362        H  0.08802745  0.80962043  0.76727163     0.14400
C363        C  0.60492876  0.65599111  0.95011242    -0.05600
C364        C  0.57622341  0.65071775  0.93394296    -0.05600
C365        C  0.57745919  0.67564007  0.91624144    -0.23700
C366        C  0.60748254  0.70641815  0.91415765     0.18500
C367        C  0.63628854  0.71242470  0.93072500     0.15700
C368        C  0.63480626  0.68727537  0.94872528    -0.18800
C369        C  0.66634741  0.74324208  0.92850377    -0.20600
C370        C  0.66818434  0.76741552  0.90945087    -0.13100
C371        C  0.63994306  0.76138395  0.89235788     0.03500
C372        C  0.60938471  0.73095510  0.89526664    -0.25300
H373        H  0.55265041  0.62705418  0.93467326     0.08600
H374        H  0.55507844  0.67061612  0.90382941     0.12200
H375        H  0.65707643  0.69181837  0.96107079     0.12100
H376        H  0.68863069  0.74843177  0.94110068     0.11900
H377        H  0.69198908  0.79075341  0.90786313     0.12400
H378        H  0.58738874  0.72595801  0.88230108     0.14400
C379        C  0.44114269  0.42010340  0.98945533    -0.05600
C380        C  0.46914631  0.42201046  0.00472296    -0.05600
C381        C  0.50051651  0.45152893  0.00558922    -0.23700
C382        C  0.50475080  0.48000332  0.99126555     0.18500
C383        C  0.47715478  0.47832333  0.97534545     0.15700
C384        C  0.44558852  0.44841956  0.97443504    -0.18800
C385        C  0.48143381  0.50677820  0.96094914    -0.20600
C386        C  0.51241073  0.53665322  0.96265883    -0.13100
C387        C  0.53994871  0.53893457  0.97887460     0.03500
C388        C  0.53593942  0.51021115  0.99293733    -0.25300
H389        H  0.46683469  0.40064686  0.01637232     0.08600
H390        H  0.52133821  0.45216958  0.01777109     0.12200
H391        H  0.42440798  0.44746608  0.96259895     0.12100
H392        H  0.46070654  0.50606070  0.94858434     0.11900
H393        H  0.51451476  0.55818948  0.95145552     0.12400
H394        H  0.55685043  0.51138789  0.00537200     0.14400
C395        C  0.23602293  0.35006151  0.88475128    -0.05600
C396        C  0.26555784  0.38177769  0.88398613    -0.05600
C397        C  0.29368684  0.38927475  0.90159894    -0.23700
C398        C  0.29297444  0.36526041  0.92048618     0.18500
C399        C  0.26336987  0.33344231  0.92164317     0.15700
C400        C  0.23523212  0.32604246  0.90384174    -0.18800
C401        C  0.26239255  0.30941087  0.94053316    -0.20600
C402        C  0.29039763  0.31663811  0.95801669    -0.13100
C403        C  0.32029389  0.34808226  0.95709433     0.03500
C404        C  0.32128586  0.37240071  0.93814227    -0.25300
H405        H  0.26707475  0.40084307  0.86956516     0.08600
H406        H  0.31606305  0.41385967  0.90035916     0.12200
H407        H  0.21275661  0.30149036  0.90482731     0.12100
H408        H  0.23992928  0.28488714  0.94176321     0.11900
H409        H  0.28857827  0.29727069  0.97221072     0.12400
H410        H  0.34396482  0.39679603  0.93709153     0.14400
C411        C  0.76071147  0.65833324  0.08531679    -0.05600
C412        C  0.76450409  0.68478133  0.06782284    -0.05600
C413        C  0.73952644  0.67992677  0.04750013    -0.23700
C414        C  0.71009634  0.64852237  0.04429804     0.18500
C415        C  0.70605968  0.62172522  0.06163259     0.15700
C416        C  0.73127587  0.62674013  0.08189663    -0.18800
C417        C  0.67672562  0.59033623  0.05857247    -0.20600
C418        C  0.65141955  0.58555746  0.03876287    -0.13100
C419        C  0.65473616  0.61201340  0.02147620     0.03500
C420        C  0.68451363  0.64352416  0.02429682    -0.25300
H421        H  0.78682299  0.70931288  0.06984167     0.08600
H422        H  0.74315688  0.70079419  0.03439312     0.12200
H423        H  0.72777044  0.60600009  0.09514837     0.12100
H424        H  0.67321133  0.56948657  0.07166124     0.11900
H425        H  0.62899528  0.56102561  0.03721538     0.12400
H426        H  0.68769512  0.66425083  0.01119673     0.14400
C427        C  0.70986019  0.99344946  0.30706428    -0.05600
C428        C  0.73873724  0.99256497  0.29633889    -0.05600
C429        C  0.76126792  0.01726333  0.27776301    -0.23700
C430        C  0.75514874  0.04314356  0.26926932     0.18500
C431        C  0.72623109  0.04439453  0.27986202     0.15700
C432        C  0.70388197  0.01967726  0.29886154    -0.18800
C433        C  0.72007019  0.07020070  0.27106522    -0.20600
C434        C  0.74227150  0.09441871  0.25185240    -0.13100
C435        C  0.77106700  0.09331609  0.24112255     0.03500
C436        C  0.77737332  0.06759046  0.25013433    -0.25300
H437        H  0.74409804  0.97282504  0.30246375     0.08600
H438        H  0.78334864  0.01598654  0.26989775     0.12200
H439        H  0.68161449  0.02056684  0.30684482     0.12100
H440        H  0.69800524  0.07154768  0.27890010     0.11900
H441        H  0.73676041  0.11392416  0.24527653     0.12400
H442        H  0.79945174  0.06638630  0.24213436     0.14400
C443        C  0.67639774  0.77682774  0.32808499    -0.05600
C444        C  0.69807320  0.80133718  0.30859599    -0.05600
C445        C  0.70047000  0.83297679  0.30832984    -0.23700
C446        C  0.68115479  0.84068237  0.32749489     0.18500
C447        C  0.65941109  0.81629528  0.34722431     0.15700
C448        C  0.65722325  0.78469204  0.34744003    -0.18800
C449        C  0.63998167  0.82379082  0.36635011    -0.20600
C450        C  0.64178226  0.85507138  0.36579034    -0.13100
C451        C  0.66311581  0.87959839  0.34614410     0.03500
C452        C  0.68298147  0.87221484  0.32712604    -0.25300
H453        H  0.71320550  0.79608764  0.29347895     0.08600
H454        H  0.71730028  0.85134410  0.29305801     0.12200
H455        H  0.64034562  0.76618730  0.36262404     0.12100
H456        H  0.62321729  0.80538769  0.38164328     0.11900
H457        H  0.62625228  0.85994297  0.38077423     0.12400
H458        H  0.69955881  0.89077266  0.31184737     0.14400
C459        C  0.56726777  0.56898845  0.44004764    -0.05600
C460        C  0.59116152  0.56306222  0.42524247    -0.05600
C461        C  0.61194813  0.58516418  0.40411611    -0.23700
C462        C  0.60936167  0.61370148  0.39759682     0.18500
C463        C  0.58565625  0.61999683  0.41260801     0.15700
C464        C  0.56473344  0.59760945  0.43356175    -0.18800
C465        C  0.58324733  0.64864791  0.40649304    -0.20600
C466        C  0.60420445  0.67099767  0.38573192    -0.13100
C467        C  0.62780712  0.66502951  0.37047286     0.03500
C468        C  0.63013502  0.63612959  0.37645978    -0.25300
H469        H  0.59357807  0.54114707  0.42979619     0.08600
H470        H  0.63001818  0.57994957  0.39290618     0.12200
H471        H  0.54657978  0.60261780  0.44490165     0.12100
H472        H  0.56522860  0.65384184  0.41782476     0.11900
H473        H  0.60172501  0.69294656  0.38152285     0.12400
H474        H  0.64834419  0.63130995  0.36500723     0.14400
C475        C  0.70523055  0.69372506  0.28737720    -0.05600
C476        C  0.69954305  0.66068581  0.28555113    -0.05600
C477        C  0.71586346  0.65156505  0.26460029    -0.23700
C478        C  0.73831090  0.67530887  0.24509073     0.18500
C479        C  0.74436084  0.70859860  0.24689433     0.15700
C480        C  0.72785678  0.71754999  0.26789360    -0.18800
C481        C  0.76685676  0.73250403  0.22764544    -0.20600
C482        C  0.78337796  0.72366114  0.20685556    -0.13100
C483        C  0.77776176  0.69065742  0.20471030     0.03500
C484        C  0.75493520  0.66646571  0.22392172    -0.25300
H485        H  0.68224866  0.64172337  0.30020180     0.08600
H486        H  0.71088600  0.62592146  0.26364819     0.12200
H487        H  0.73270035  0.74316486  0.26898496     0.12100
H488        H  0.77180072  0.75814706  0.22871370     0.11900
H489        H  0.80071734  0.74288552  0.19241312     0.12400
H490        H  0.75042142  0.64098183  0.22264070     0.14400
C491        C  0.37057740  0.31108272  0.03336031    -0.05600
C492        C  0.40045805  0.31409902  0.04593341    -0.05600
C493        C  0.39864140  0.29229966  0.06733088    -0.23700
C494        C  0.36688199  0.26704488  0.07682389     0.18500
C495        C  0.33657193  0.26319717  0.06414554     0.15700
C496        C  0.33857823  0.28511038  0.04231565    -0.18800
C497        C  0.30484572  0.23782560  0.07388908    -0.20600
C498        C  0.30322356  0.21680961  0.09613817    -0.13100
C499        C  0.33328794  0.22072141  0.10905109     0.03500
C500        C  0.36506515  0.24585364  0.09903534    -0.25300
H501        H  0.42549921  0.33359569  0.03937673     0.08600
H502        H  0.42212243  0.29549220  0.07671248     0.12200
H503        H  0.31533436  0.28247303  0.03289225     0.12100
H504        H  0.28129776  0.23437929  0.06445488     0.11900
H505        H  0.27836216  0.19752909  0.10329096     0.12400
H506        H  0.38849248  0.24911866  0.10860889     0.14400
C507        C  0.34659613  0.38078381  0.36840198    -0.05600
C508        C  0.34744303  0.41119807  0.37483402    -0.05600
C509        C  0.37276038  0.43482227  0.39243208    -0.23700
C510        C  0.39747207  0.42826788  0.40424490     0.18500
C511        C  0.39790082  0.39844004  0.39697693     0.15700
C512        C  0.37264278  0.37497356  0.37866297    -0.18800
C513        C  0.42264483  0.39204103  0.40921128    -0.20600
C514        C  0.44588144  0.41439623  0.42917402    -0.13100
C515        C  0.44477534  0.44352411  0.43714790     0.03500
C516        C  0.42091095  0.45057168  0.42405586    -0.25300
H517        H  0.32774536  0.41627048  0.36693038     0.08600
H518        H  0.37223652  0.45765697  0.39764536     0.12200
H519        H  0.37197742  0.35145972  0.37393881     0.12100
H520        H  0.42347505  0.36938697  0.40390373     0.11900
H521        H  0.46415015  0.40845977  0.43888466     0.12400
H522        H  0.41993648  0.47306461  0.42980256     0.14400
C523        C  0.32431789  0.22054575  0.23211469    -0.05600
C524        C  0.35468005  0.24752807  0.24273126    -0.05600
C525        C  0.35368414  0.26917308  0.26335957    -0.23700
C526        C  0.32229063  0.26431888  0.27384352     0.18500
C527        C  0.29156511  0.23716650  0.26356339     0.15700
C528        C  0.29274122  0.21543655  0.24280297    -0.18800
C529        C  0.26018657  0.23241273  0.27404997    -0.20600
C530        C  0.25923516  0.25465343  0.29412892    -0.13100
C531        C  0.28964083  0.28202990  0.30428170     0.03500
C532        C  0.32116351  0.28643055  0.29417818    -0.25300
H533        H  0.37937280  0.25210089  0.23497439     0.08600
H534        H  0.37749156  0.28983370  0.27098497     0.12200
H535        H  0.26911756  0.19470259  0.23493340     0.12100
H536        H  0.23635838  0.21169088  0.26652095     0.11900
H537        H  0.23454694  0.25045824  0.30156991     0.12400
H538        H  0.34483994  0.30739119  0.30168249     0.14400
C539        C  0.22360433  0.32726151  0.35423226    -0.05600
C540        C  0.22279057  0.35063095  0.37347693    -0.05600
C541        C  0.19249746  0.35135170  0.37860804    -0.23700
C542        C  0.16240070  0.32876994  0.36457280     0.18500
C543        C  0.16272175  0.30472795  0.34565110     0.15700
C544        C  0.19323698  0.30403036  0.34067372    -0.18800
C545        C  0.13262105  0.28212152  0.33163974    -0.20600
C546        C  0.10264194  0.28371284  0.33587745    -0.13100
C547        C  0.10213639  0.30796085  0.35422525     0.03500
C548        C  0.13215151  0.33020921  0.36878882    -0.25300
H549        H  0.24570669  0.36872893  0.38444481     0.08600
H550        H  0.19272568  0.36985445  0.39328448     0.12200
H551        H  0.19339905  0.28580891  0.32587483     0.12100
H552        H  0.13234664  0.26347549  0.31711285     0.11900
H553        H  0.07993991  0.26616026  0.32435472     0.17800
H554        H  0.13217904  0.34896066  0.38305424     0.14400
C555        C  0.89364861  0.21736655  0.24948274    -0.05600
C556        C  0.89563754  0.24800482  0.25714157    -0.05600
C557        C  0.91770956  0.26777193  0.27890019    -0.23700
C558        C  0.93799123  0.25710859  0.29338721     0.18500
C559        C  0.93517540  0.22576044  0.28638881     0.15700
C560        C  0.91307285  0.20616788  0.26459924    -0.18800
C561        C  0.95533645  0.21491782  0.30063866    -0.20600
C562        C  0.97949336  0.23571012  0.32053129    -0.13100
C563        C  0.98364651  0.26753984  0.32680315     0.03500
C564        C  0.96199423  0.27770996  0.31389352    -0.25300
H565        H  0.88077052  0.25706686  0.24583590     0.08600
H566        H  0.91943240  0.29167398  0.28397897     0.12200
H567        H  0.91139780  0.18235647  0.25912106     0.12100
H568        H  0.95325277  0.19082510  0.29569545     0.11900
H569        H  0.99570943  0.22726138  0.33045193     0.12400
H570        H  0.96519182  0.30231318  0.31850454     0.14400
C571        C  0.11860457  0.76130842  0.89083063    -0.05600
C572        C  0.09262855  0.76542739  0.90412671    -0.05600
C573        C  0.07086647  0.74247711  0.92433741    -0.23700
C574        C  0.07454427  0.71481733  0.93176266     0.18500
C575        C  0.10102678  0.71081590  0.91904496     0.15700
C576        C  0.12287355  0.73402268  0.89875172    -0.18800
C577        C  0.10486125  0.68329067  0.92643694    -0.20600
C578        C  0.08208551  0.65939329  0.94544732    -0.13100
C579        C  0.05492140  0.66240078  0.95770305     0.03500
C580        C  0.05176721  0.69072700  0.95115854    -0.25300
H581        H  0.08874646  0.78627296  0.89864396     0.08600
H582        H  0.05088237  0.74614223  0.93386210     0.12200
H583        H  0.14286207  0.73057933  0.88891132     0.12100
H584        H  0.12512178  0.67989607  0.91713494     0.11900
H585        H  0.08561060  0.63817043  0.95025011     0.12400
H586        H  0.03109484  0.69351598  0.96039353     0.14400
C587        C  0.95813004  0.61579653  0.02756570    -0.05600
C588        C  0.93588647  0.58886955  0.04502122    -0.05600
C589        C  0.91274366  0.59161672  0.06344536    -0.23700
C590        C  0.91119569  0.62139549  0.06497593     0.18500
C591        C  0.93299559  0.64853836  0.04735751     0.15700
C592        C  0.95623389  0.64559959  0.02875793    -0.18800
C593        C  0.93151478  0.67836230  0.04894136    -0.20600
C594        C  0.90935639  0.68155228  0.06820302    -0.13100
C595        C  0.88792565  0.65496757  0.08626472     0.03500
C596        C  0.88865501  0.62465508  0.08417060    -0.25300
H597        H  0.93647598  0.56550917  0.04470425     0.08600
H598        H  0.89628141  0.57050865  0.07670912     0.12200
H599        H  0.97299468  0.66659019  0.01549829     0.12100
H600        H  0.94783220  0.69940996  0.03556772     0.11900
H601        H  0.90926775  0.70515728  0.06910233     0.12400
H602        H  0.87241132  0.60396659  0.09792396     0.14400
C603        C  0.98771481  0.42891662  0.00680351    -0.05600
C604        C  0.96417567  0.43282484  0.02421964    -0.05600
C605        C  0.96284095  0.46262752  0.02436069    -0.23700
C606        C  0.98503944  0.48933267  0.00711395     0.18500
C607        C  0.00855009  0.48575080  0.98922583     0.15700
C608        C  0.00969009  0.45555541  0.98907958    -0.18800
C609        C  0.03076146  0.51259317  0.97202400    -0.20600
C610        C  0.02990470  0.54270771  0.97273508    -0.13100
C611        C  0.00676687  0.54666271  0.99061632     0.03500
C612        C  0.98423570  0.51962115  0.00767546    -0.25300
H613        H  0.94674371  0.41284201  0.03804552     0.08600
H614        H  0.94459772  0.46485658  0.03815561     0.12200
H615        H  0.02795634  0.45303895  0.97553231     0.12100
H616        H  0.04893858  0.51038599  0.95813507     0.11900
H617        H  0.04754554  0.56297249  0.95924922     0.12400
H618        H  0.96622469  0.52213749  0.02156257     0.14400
C619        C  0.10927528  0.35409566  0.89178445    -0.05600
C620        C  0.11034042  0.38528891  0.89073502    -0.05600
C621        C  0.09237665  0.39365183  0.91069644    -0.23700
C622        C  0.07305615  0.37104684  0.93221038     0.18500
C623        C  0.07253026  0.34000316  0.93394750     0.15700
C624        C  0.09056733  0.33173233  0.91379030    -0.18800
C625        C  0.05349516  0.31748484  0.95554741    -0.20600
C626        C  0.03442972  0.32519863  0.97479613    -0.13100
C627        C  0.03392995  0.35564360  0.97294607     0.03500
C628        C  0.05382729  0.37870201  0.95169685    -0.25300
H629        H  0.12458434  0.40305974  0.87412682     0.08600
H630        H  0.09325614  0.41765759  0.90907346     0.12200
H631        H  0.08971226  0.30769872  0.91509550     0.12100
H632        H  0.05296580  0.29364642  0.95733940     0.11900
H633        H  0.01966029  0.30696591  0.99094184     0.12400
H634        H  0.05397366  0.40236350  0.94997821     0.14400
C635        C  0.89654817  0.22823726  0.12619076    -0.05600
C636        C  0.92425286  0.22604943  0.11425358    -0.05600
C637        C  0.94430586  0.24811503  0.09277214    -0.23700
C638        C  0.93702006  0.27278613  0.08281531     0.18500
C639        C  0.90933170  0.27524332  0.09480378     0.15700
C640        C  0.88936086  0.25305860  0.11629991    -0.18800
C641        C  0.90198215  0.29988536  0.08513312    -0.20600
C642        C  0.92205810  0.32217738  0.06398178    -0.13100
C643        C  0.94979021  0.32020469  0.05183982     0.03500
C644        C  0.95697797  0.29514841  0.06123832    -0.25300
H645        H  0.93036057  0.20713896  0.12141218     0.08600
H646        H  0.96544489  0.24584303  0.08393097     0.12200
H647        H  0.86806835  0.25506208  0.12518420     0.12100
H648        H  0.88080539  0.30205504  0.09403435     0.11900
H649        H  0.91573399  0.34103090  0.05708427     0.12400
H650        H  0.97835394  0.29342503  0.05219452     0.14400
C651        C  0.25034934  0.87964596  0.88891016    -0.05600
C652        C  0.27888766  0.87464710  0.89048263    -0.05600
C653        C  0.30501148  0.89248586  0.91001706    -0.23700
C654        C  0.30312486  0.91564098  0.92848661     0.18500
C655        C  0.27458857  0.92090492  0.92730200     0.15700
C656        C  0.24839060  0.90296017  0.90742368    -0.18800
C657        C  0.27282275  0.94401510  0.94603856    -0.20600
C658        C  0.29915201  0.96181864  0.96562062    -0.13100
C659        C  0.32779522  0.95694176  0.96672640     0.03500
C660        C  0.32943694  0.93363315  0.94806401    -0.25300
H661        H  0.28120029  0.85697276  0.87645063     0.08600
H662        H  0.32671616  0.88816161  0.91065680     0.12200
H663        H  0.22653393  0.90702831  0.90647610     0.12100
H664        H  0.25115185  0.94837546  0.94551438     0.11900
H665        H  0.29717845  0.97962583  0.97972300     0.12400
H666        H  0.35120756  0.92940578  0.94869358     0.14400
C667        C  0.33637721  0.09861370  0.11332397    -0.05600
C668        C  0.30737811  0.07499436  0.09834270    -0.05600
C669        C  0.31009057  0.05391194  0.07804203    -0.23700
C670        C  0.34182832  0.05595956  0.07249029     0.18500
C671        C  0.37108847  0.07942636  0.08758972     0.15700
C672        C  0.36821614  0.10064127  0.10777989    -0.18800
C673        C  0.40275864  0.08127071  0.08228448    -0.20600
C674        C  0.40546431  0.06008973  0.06212958    -0.13100
C675        C  0.37660056  0.03680745  0.04676038     0.03500
C676        C  0.34477631  0.03491965  0.05211968    -0.25300
H677        H  0.28256696  0.07290188  0.10220176     0.08600
H678        H  0.28738268  0.03601433  0.06670916     0.12200
H679        H  0.39078742  0.11858956  0.11926926     0.12100
H680        H  0.42543742  0.09909225  0.09371040     0.11900
H681        H  0.43030390  0.06217753  0.05842957     0.12400
H682        H  0.32223908  0.01699304  0.04059637     0.14400
C683        C  0.56231866  0.00326967  0.01440271    -0.05600
C684        C  0.55809617  0.02297060  0.03557455    -0.05600
C685        C  0.52787370  0.02447306  0.03763768    -0.23700
C686        C  0.50108955  0.00635041  0.01856657     0.18500
C687        C  0.50470910  0.98627379  0.99726983     0.15700
C688        C  0.53528270  0.98475658  0.99533745    -0.18800
C689        C  0.47771611  0.96823537  0.97821317    -0.20600
C690        C  0.44754743  0.97013138  0.98022866    -0.13100
C691        C  0.44376534  0.99011858  0.00133688     0.03500
C692        C  0.47080161  0.00813773  0.02047210    -0.25300
H693        H  0.57827799  0.03747444  0.05070392     0.08600
H694        H  0.52552500  0.03995059  0.05411628     0.12200
H695        H  0.53810719  0.96953569  0.97889394     0.12100
H696        H  0.47994151  0.95272663  0.96172439     0.11900
H697        H  0.42720486  0.95595438  0.96515217     0.12400
H698        H  0.46840122  0.02365527  0.03688718     0.14400
C699        C  0.63696163  0.96180334  0.97240028    -0.05600
C700        C  0.67042093  0.96742039  0.96782187    -0.05600
C701        C  0.67701377  0.94873345  0.94764409    -0.23700
C702        C  0.65028878  0.92385713  0.93160861     0.18500
C703        C  0.61641251  0.91733294  0.93634122     0.15700
C704        C  0.60992561  0.93633434  0.95667736    -0.18800
C705        C  0.58971415  0.89219538  0.92036863    -0.20600
C706        C  0.59661146  0.87418579  0.89959767    -0.13100
C707        C  0.63034026  0.88090736  0.89434150     0.03500
C708        C  0.65703490  0.90568673  0.91072052    -0.25300
H709        H  0.69182460  0.98676089  0.97952085     0.08600
H710        H  0.70310445  0.95400095  0.94438512     0.12200
H711        H  0.58396431  0.93147285  0.96003560     0.12100
H712        H  0.56354361  0.88664145  0.92376504     0.11900
H713        H  0.57544440  0.85508170  0.88748714     0.12400
H714        H  0.68310848  0.91105977  0.90710469     0.14400
C715        C  0.68019798  0.04995339  0.04669506    -0.05600
C716        C  0.67862983  0.07792221  0.05742296    -0.05600
C717        C  0.70241914  0.09923529  0.07729499    -0.23700
C718        C  0.72804382  0.09279291  0.08711649     0.18500
C719        C  0.73073775  0.06544157  0.07587404     0.15700
C720        C  0.70697336  0.04433556  0.05539922    -0.18800
C721        C  0.75645260  0.05914437  0.08605076    -0.20600
C722        C  0.77850500  0.07910986  0.10776539    -0.13100
C723        C  0.77526509  0.10575748  0.11955332     0.03500
C724        C  0.75034153  0.11278102  0.10863697    -0.25300
H725        H  0.65856503  0.08309653  0.05076322     0.08600
H726        H  0.70020215  0.12026171  0.08554504     0.12200
H727        H  0.70840764  0.02283836  0.04726779     0.12100
H728        H  0.75906005  0.03840321  0.07764863     0.11900
H729        H  0.79769675  0.07332501  0.11565464     0.12400
H730        H  0.74773025  0.13343722  0.11729347     0.14400
C731        C  0.96925154  0.64920914  0.61467592    -0.05600
C732        C  0.94025314  0.62675271  0.59891721    -0.05600
C733        C  0.94188782  0.60430818  0.57954109    -0.23700
C734        C  0.97260181  0.60385460  0.57536407     0.18500
C735        C  0.00197376  0.62615685  0.59102043     0.15700
C736        C  0.00010559  0.64858461  0.61068318    -0.18800
C737        C  0.03272238  0.62570437  0.58661447    -0.20600
C738        C  0.03428670  0.60330586  0.56700201    -0.13100
C739        C  0.00512281  0.58084162  0.55146739     0.03500
C740        C  0.97433398  0.58140515  0.55578027    -0.25300
H741        H  0.91608008  0.62645269  0.60151398     0.08600
H742        H  0.91911967  0.58737384  0.56774620     0.12200
H743        H  0.02271473  0.66574124  0.62254575     0.12100
H744        H  0.05553798  0.64261756  0.59835820     0.11900
H745        H  0.05834188  0.60341514  0.56417935     0.12400
H746        H  0.95162925  0.56432637  0.54396842     0.14400
C747        C  0.04128432  0.36588860  0.39096306    -0.05600
C748        C  0.07106237  0.38936836  0.40526434    -0.05600
C749        C  0.07098014  0.41467527  0.42200066    -0.23700
C750        C  0.04108267  0.41699699  0.42487577     0.18500
C751        C  0.01105669  0.39378319  0.41045971     0.15700
C752        C  0.01135009  0.36848215  0.39354636    -0.18800
C753        C  0.98112401  0.39605835  0.41344335    -0.20600
C754        C  0.98083138  0.42083916  0.43082027    -0.13100
C755        C  0.01048504  0.44392727  0.44546761     0.03500
C756        C  0.04066233  0.44194631  0.44217174    -0.25300
H757        H  0.09455176  0.38815819  0.40367431     0.08600
H758        H  0.09423558  0.43226660  0.43285988     0.12200
H759        H  0.98817998  0.35067436  0.38269704     0.12100
H760        H  0.95787897  0.37852925  0.40253113     0.11900
H761        H  0.95724039  0.42179680  0.43287736     0.12400
H762        H  0.06371444  0.45951190  0.45330465     0.14400
C763        C  0.37133673  0.05047249  0.62951679    -0.05600
C764        C  0.38836664  0.07709037  0.61020403    -0.05600
C765        C  0.41000072  0.07602152  0.58921843    -0.23700
C766        C  0.41512678  0.04830527  0.58702340     0.18500
C767        C  0.39821157  0.02138137  0.60624402     0.15700
C768        C  0.37651261  0.02263203  0.62737420    -0.18800
C769        C  0.40316076  0.99355288  0.60392358    -0.20600
C770        C  0.42446514  0.99231317  0.58270799    -0.13100
C771        C  0.44145760  0.01894551  0.56345602     0.03500
C772        C  0.43674953  0.04701643  0.56584655    -0.25300
H773        H  0.38494231  0.09890852  0.61117035     0.08600
H774        H  0.42263998  0.09684963  0.57466385     0.12200
H775        H  0.36361653  0.00190661  0.64199440     0.12100
H776        H  0.39046906  0.97268936  0.61843275     0.11900
H777        H  0.42769524  0.97039159  0.58145471     0.12400
H778        H  0.44951959  0.06761363  0.55108043     0.14400
C779        C  0.61971985  0.95338682  0.38090920    -0.05600
C780        C  0.59525083  0.92679520  0.39733267    -0.05600
C781        C  0.57410555  0.93178032  0.41626975    -0.23700
C782        C  0.57706124  0.96351260  0.41929660     0.18500
C783        C  0.60121571  0.99047611  0.40281092     0.15700
C784        C  0.62232776  0.98523287  0.38358090    -0.18800
C785        C  0.60405429  0.02224622  0.40615499    -0.20600
C786        C  0.58340202  0.02725335  0.42590963    -0.13100
C787        C  0.55952201  0.00055352  0.44253034     0.03500
C788        C  0.55641686  0.96866796  0.43884959    -0.25300
H789        H  0.59246025  0.90196909  0.39570126     0.08600
H790        H  0.55564606  0.91086030  0.42874455     0.12200
H791        H  0.64104250  0.00598935  0.37112683     0.12100
H792        H  0.62239714  0.04322423  0.39370276     0.11900
H793        H  0.58628179  0.05204535  0.42829643     0.12400
H794        H  0.53814528  0.94775044  0.45144471     0.14400
C795        C  0.57684521  0.03526897  0.55975846    -0.05600
C796        C  0.60080000  0.06919502  0.56475949    -0.05600
C797        C  0.62818852  0.07836146  0.58359584    -0.23700
C798        C  0.63236550  0.05383453  0.59793747     0.18500
C799        C  0.60837546  0.01969427  0.59324017     0.15700
C800        C  0.58086452  0.01062998  0.57426593    -0.18800
C801        C  0.61227568  0.99509181  0.60760519    -0.20600
C802        C  0.63936041  0.00408324  0.62658376    -0.13100
C803        C  0.66349653  0.03793342  0.63165711     0.03500
C804        C  0.65992757  0.06279186  0.61697152    -0.25300
H805        H  0.59848537  0.08885137  0.55399357     0.08600
H806        H  0.64613331  0.10466641  0.58689708     0.12200
H807        H  0.56275265  0.98441111  0.57069565     0.12100
H808        H  0.59425599  0.96880771  0.60427689     0.11900
H809        H  0.64136214  0.98424499  0.63732734     0.12400
H810        H  0.67810917  0.08896046  0.62070442     0.14400
C811        C  0.70691458  0.00167978  0.71229442    -0.05600
C812        C  0.73331385  0.00682604  0.73127882    -0.05600
C813        C  0.72888887  0.98232164  0.75103851    -0.23700
C814        C  0.69788217  0.95222121  0.75234879     0.18500
C815        C  0.67116958  0.94658501  0.73335365     0.15700
C816        C  0.67588210  0.97123613  0.71337211    -0.18800
C817        C  0.64006966  0.91651264  0.73487651    -0.20600
C818        C  0.63535719  0.89243403  0.75527666    -0.13100
C819        C  0.66172844  0.89786211  0.77436169     0.03500
C820        C  0.69308818  0.92782945  0.77255732    -0.25300
H821        H  0.75751820  0.02989250  0.73094129     0.08600
H822        H  0.74963183  0.98702502  0.76542819     0.12200
H823        H  0.65524938  0.96680567  0.69894191     0.12100
H824        H  0.61933720  0.91171834  0.72044885     0.11900
H825        H  0.61104898  0.86949626  0.75605711     0.12400
H826        H  0.71367852  0.93242833  0.78710364     0.14400
C827        C  0.87807483  0.23373996  0.66292625    -0.05600
C828        C  0.85313701  0.22924940  0.64243452    -0.05600
C829        C  0.82242569  0.19909272  0.64023930    -0.23700
C830        C  0.81567927  0.17250092  0.65850597     0.18500
C831        C  0.84042623  0.17649432  0.67912209     0.15700
C832        C  0.87143618  0.20696642  0.68120462    -0.18800
C833        C  0.83368438  0.14993167  0.69741043    -0.20600
C834        C  0.80286688  0.11986869  0.69538850    -0.13100
C835        C  0.77783965  0.11540046  0.67500041     0.03500
C836        C  0.78460265  0.14206162  0.65652095    -0.25300
H837        H  0.85723695  0.24916863  0.62788899     0.08600
H838        H  0.80391960  0.19663464  0.62427376     0.12200
H839        H  0.89018070  0.20982740  0.69708722     0.12100
H840        H  0.85222142  0.15238357  0.71333930     0.11900
H841        H  0.79875822  0.10000654  0.70999595     0.12400
H842        H  0.76580467  0.13921757  0.64068938     0.14400
C843        C  0.94660833  0.34858452  0.62793345    -0.05600
C844        C  0.92061081  0.34196967  0.60794868    -0.05600
C845        C  0.92438087  0.36585989  0.58776372    -0.23700
C846        C  0.95431620  0.39692133  0.58698676     0.18500
C847        C  0.98032842  0.40430112  0.60732158     0.15700
C848        C  0.97624598  0.38022913  0.62777317    -0.18800
C849        C  0.01042009  0.43529790  0.60632675    -0.20600
C850        C  0.01523175  0.45815855  0.58474498    -0.13100
C851        C  0.98986133  0.45074398  0.56400864     0.03500
C852        C  0.95905138  0.42030073  0.56568898    -0.25300
H853        H  0.89738544  0.31797689  0.60751396     0.08600
H854        H  0.90415608  0.35976800  0.57240806     0.12200
H855        H  0.99645950  0.38588124  0.64304250     0.12100
H856        H  0.03054949  0.44153816  0.62180557     0.11900
H857        H  0.03906596  0.48160333  0.58411092     0.12400
H858        H  0.93934429  0.41423290  0.54980364     0.14400
C859        C  0.99442442  0.30881485  0.70386727    -0.05600
C860        C  0.02347213  0.34093088  0.70477713    -0.05600
C861        C  0.05095638  0.34804571  0.72288464    -0.23700
C862        C  0.05030736  0.32326841  0.74066328     0.18500
C863        C  0.02153984  0.29083673  0.74008494     0.15700
C864        C  0.99376082  0.28377092  0.72173660    -0.18800
C865        C  0.02113194  0.26612439  0.75794478    -0.20600
C866        C  0.04872129  0.27349741  0.77622336    -0.13100
C867        C  0.07745634  0.30576457  0.77712341     0.03500
C868        C  0.07794622  0.33050670  0.75905355    -0.25300
H869        H  0.02509121  0.36088343  0.69144311     0.08600
H870        H  0.07278258  0.37306669  0.72298825     0.12200
H871        H  0.97176913  0.25886564  0.72138877     0.12100
H872        H  0.99940166  0.24106004  0.75785696     0.11900
H873        H  0.04746540  0.25386302  0.78976452     0.12400
H874        H  0.09978953  0.35552018  0.75934058     0.14400
C875        C  0.32671519  0.94759993  0.37412763    -0.05600
C876        C  0.32417949  0.91975769  0.38885497    -0.05600
C877        C  0.34870099  0.92363971  0.40933430    -0.23700
C878        C  0.37617259  0.95549980  0.41568498     0.18500
C879        C  0.37893418  0.98352295  0.40089781     0.15700
C880        C  0.35448648  0.97942326  0.38028735    -0.18800
C881        C  0.40599748  0.01542852  0.40705883    -0.20600
C882        C  0.43007471  0.01972698  0.42776910    -0.13100
C883        C  0.42790357  0.99227276  0.44292017     0.03500
C884        C  0.40076320  0.95998016  0.43661614    -0.25300
H885        H  0.30319932  0.89489577  0.38457431     0.08600
H886        H  0.34604016  0.90176865  0.42031867     0.12200
H887        H  0.35696039  0.00125390  0.36932763     0.12100
H888        H  0.40849375  0.03717307  0.39593800     0.11900
H889        H  0.45053827  0.04490007  0.43192244     0.12400
H890        H  0.39865531  0.93854783  0.44799963     0.14400
C891        C  0.28604483  0.99713326  0.30037224    -0.05600
C892        C  0.25666828  0.99799324  0.29108027    -0.05600
C893        C  0.25922245  0.02282857  0.27265643    -0.23700
C894        C  0.29123932  0.04723284  0.26285720     0.18500
C895        C  0.32114782  0.04715325  0.27229374     0.15700
C896        C  0.31842265  0.02221808  0.29129858    -0.18800
C897        C  0.35308679  0.07162089  0.26204663    -0.20600
C898        C  0.35524856  0.09560043  0.24247231    -0.13100
C899        C  0.32552748  0.09554876  0.23280480     0.03500
C900        C  0.29361676  0.07134174  0.24336381    -0.25300
H901        H  0.23143180  0.97912360  0.29790906     0.08600
H902        H  0.23608369  0.02260019  0.26570443     0.12200
H903        H  0.34118027  0.02162601  0.29814307     0.12100
H904        H  0.37631515  0.07198397  0.26889595     0.11900
H905        H  0.38017901  0.11388865  0.23458602     0.12400
H906        H  0.27046615  0.07094202  0.23617110     0.14400
C907        C  0.21377234  0.88052861  0.32585489    -0.05600
C908        C  0.19292689  0.87872210  0.30266849    -0.05600
C909        C  0.16135989  0.85045840  0.29796053    -0.23700
C910        C  0.14970334  0.82312184  0.31627357     0.18500
C911        C  0.17026533  0.82419491  0.33955678     0.15700
C912        C  0.20228584  0.85290439  0.34422706    -0.18800
C913        C  0.15830173  0.79652685  0.35772338    -0.20600
C914        C  0.12653932  0.76817652  0.35272088    -0.13100
C915        C  0.10595791  0.76692545  0.32953246     0.03500
C916        C  0.11779304  0.79472072  0.31148781    -0.25300
H917        H  0.20090977  0.89933831  0.28792885     0.08600
H918        H  0.14603625  0.85004653  0.27998027     0.12200
H919        H  0.21790669  0.85386111  0.36218478     0.12100
H920        H  0.17350620  0.79675304  0.37572457     0.11900
H921        H  0.11809503  0.74719130  0.36713415     0.12400
H922        H  0.10238695  0.79419663  0.29352245     0.14400
C923        C  0.02522878  0.65032136  0.35250371    -0.05600
C924        C  0.99133490  0.62458925  0.35608153    -0.05600
C925        C  0.98352868  0.59905099  0.37596143    -0.23700
C926        C  0.00949052  0.59884326  0.39256610     0.18500
C927        C  0.04377367  0.62370506  0.38801808     0.15700
C928        C  0.05138467  0.64896645  0.36798938    -0.18800
C929        C  0.06991042  0.62369019  0.40428358    -0.20600
C930        C  0.06214501  0.60001987  0.42567436    -0.13100
C931        C  0.02806848  0.57576333  0.43127300     0.03500
C932        C  0.00181165  0.57491611  0.41416025    -0.25300
H933        H  0.97072536  0.62488630  0.34433506     0.08600
H934        H  0.95709203  0.58002627  0.37892293     0.12200
H935        H  0.07776904  0.66827541  0.36517373     0.12100
H936        H  0.09636851  0.64249982  0.40090707     0.11900
H937        H  0.08293439  0.60120829  0.43826279     0.12400
H938        H  0.97544265  0.55621459  0.41803022     0.14400
C939        C  0.89804520  0.67855375  0.20699881    -0.05600
C940        C  0.89074408  0.64933325  0.22218956    -0.05600
C941        C  0.91266310  0.64963535  0.24340415    -0.23700
C942        C  0.94263666  0.67918997  0.25008580     0.18500
C943        C  0.95041100  0.70895090  0.23537562     0.15700
C944        C  0.92802907  0.70854033  0.21393779    -0.18800
C945        C  0.98059890  0.73843798  0.24226181    -0.20600
C946        C  0.00288853  0.73827664  0.26314965    -0.13100
C947        C  0.99550603  0.70867847  0.27777363     0.03500
C948        C  0.96501704  0.67923050  0.27111323    -0.25300
H949        H  0.86791807  0.62583856  0.21762332     0.08600
H950        H  0.90622726  0.62661592  0.25446769     0.12200
H951        H  0.93408373  0.73130405  0.20258789     0.12100
H952        H  0.98710544  0.76157567  0.23137770     0.11900
H953        H  0.02604415  0.76146297  0.26777581     0.12400
H954        H  0.95877098  0.65617963  0.28204888     0.14400
loop_ 
_geom_bond_atom_site_label_1 
_geom_bond_atom_site_label_2 
_geom_bond_distance 
_geom_bond_site_symmetry_2 
_ccdc_geom_bond_type 
C1            N2   1.363       .  A
C1            N6   1.356       .  A
C1          C923   1.485       .  S
N2            C3   1.366       .  A
C3            N4   1.363       .  A
C3          C947   1.495   1_455  S
N4            C5   1.361       .  A
C5            N6   1.353       .  A
C5          C915   1.485       .  S
C7            N8   1.367       .  A
C7           N12   1.369       .  A
C7          C875   1.493       .  S
N8            C9   1.358       .  A
C9           N10   1.349       .  A
C9          C891   1.479       .  S
N10          C11   1.352       .  A
C11          N12   1.364       .  A
C11         C907   1.487       .  S
C13          N14   1.358       .  A
C13          N18   1.354       .  A
C13         C843   1.489       .  S
N14          C15   1.364       .  A
C15          N16   1.369       .  A
C15         C859   1.499       .  S
N16          C17   1.368       .  A
C17          N18   1.357       .  A
C17         C827   1.495       .  S
C19          N20   1.355       .  A
C19          N24   1.354       .  A
C19         C811   1.485       .  S
N20          C21   1.359       .  A
C21          N22   1.370       .  A
C21         C835   1.495       .  S
N22          C23   1.369       .  A
C23          N24   1.359       .  A
C23         C803   1.492       .  S
O25         Ni33   1.931       .  S
O25          C35   1.284       .  A
O26         Ni33   1.931       .  S
O26          C36   1.285       .  A
O27         Ni33   1.910       .  S
O27          C37   1.279       .  A
O28         Ni33   1.907       .  S
O28          C38   1.280   1_545  A
O29         Ni34   1.943       .  S
O29          C38   1.286       .  A
O30         Ni34   1.941       .  S
O30          C37   1.287   1_565  A
O31         Ni34   1.902       .  S
O31          C36   1.278   1_565  A
O32         Ni34   1.899       .  S
O32          C35   1.278   1_565  A
Ni33        Ni34   2.384   1_545  S
C35         C787   1.481       .  S
C36         C771   1.481       .  S
C37         C795   1.491       .  S
C38         C883   1.492       .  S
O39         Ni47   1.926       .  S
O39          C49   1.283   1_655  A
O40         Ni47   1.926       .  S
O40          C50   1.283       .  A
O41         Ni47   1.918       .  S
O41          C51   1.282   1_655  A
O42         Ni47   1.915       .  S
O42          C52   1.281   1_655  A
O43         Ni48   1.920       .  S
O43          C52   1.283       .  A
O44         Ni48   1.919       .  S
O44          C51   1.282       .  A
O45         Ni48   1.915       .  S
O45          C50   1.281   1_455  A
O46         Ni48   1.915       .  S
O46          C49   1.282       .  A
Ni47        Ni48   2.386   1_655  S
C49         C931   1.485       .  S
C50         C851   1.482       .  S
C51         C739   1.484       .  S
C52         C755   1.483       .  S
C53          N54   1.366       .  A
C53          N58   1.363   1_566  A
C53         C699   1.487       .  S
N54          C55   1.363   1_566  A
C55          N56   1.353       .  A
C55         C683   1.485       .  S
N56          C57   1.352       .  A
C57          N58   1.356       .  A
C57         C715   1.477       .  S
C59          N60   1.359       .  A
C59          N64   1.359   1_545  A
C59         C675   1.482       .  S
N60          C61   1.359   1_545  A
C61          N62   1.357   1_554  A
C61         C691   1.484       .  S
N62          C63   1.359       .  A
C63          N64   1.358   1_556  A
C63         C659   1.481       .  S
C65          N66   1.365       .  A
C65          N70   1.364   1_456  A
C65         C627   1.491       .  S
N66          C67   1.363   1_456  A
C67          N68   1.355       .  A
C67         C603   1.488       .  S
N68          C69   1.354       .  A
C69          N70   1.359       .  A
C69         C643   1.483       .  S
C71          N72   1.368   1_654  A
C71          N76   1.362       .  A
C71         C587   1.495       .  S
N72          C73   1.366       .  A
C73          N74   1.357       .  A
C73         C579   1.490       .  S
N74          C75   1.353       .  A
C75          N76   1.358   1_456  A
C75         C611   1.487       .  S
C77          N78   1.362       .  A
C77          N82   1.363       .  A
C77         C747   1.485       .  S
N78          C79   1.358       .  A
C79          N80   1.352       .  A
C79         C547   1.480       .  S
N80          C81   1.353       .  A
C81          N82   1.359       .  A
C81         C563   1.473   1_455  S
C83          N84   1.365       .  A
C83          N88   1.362       .  A
C83         C531   1.485       .  S
N84          C85   1.360       .  A
C85          N86   1.352       .  A
C85         C507   1.473       .  S
N86          C87   1.351       .  A
C87          N88   1.358       .  A
C87         C539   1.479       .  S
O89         Ni97   1.913       .  S
O89          C99   1.281       .  A
O90         Ni97   1.909       .  S
O90         C100   1.280       .  A
O91         Ni97   1.920       .  S
O91         C101   1.283       .  A
O92         Ni97   1.921       .  S
O92         C102   1.282       .  A
O93         Ni98   1.915       .  S
O93         C102   1.282       .  A
O94         Ni98   1.917       .  S
O94         C101   1.281       .  A
O95         Ni98   1.922       .  S
O95         C100   1.283       .  A
O96         Ni98   1.924       .  S
O96          C99   1.283       .  A
Ni97        Ni98   2.386       .  S
C99         C523   1.484       .  S
C100        C667   1.480       .  S
C101        C499   1.484       .  S
C102        C899   1.482       .  S
C103        N104   1.362       .  A
C103        N108   1.361       .  A
C103        C475   1.486       .  S
N104        C105   1.359       .  A
C105        N106   1.356       .  A
C105        C443   1.485       .  S
N106        C107   1.356       .  A
C107        N108   1.359       .  A
C107        C467   1.481       .  S
C109        N110   1.359       .  A
C109        N114   1.358       .  A
C109        C779   1.483       .  S
N110        C111   1.360       .  A
C111        N112   1.361       .  A
C111        C427   1.480       .  S
N112        C113   1.358       .  A
C113        N114   1.357       .  A
C113        C451   1.485       .  S
O115       Ni123   1.905       .  S
O115        C125   1.279       .  A
O116       Ni123   1.908       .  S
O116        C126   1.279       .  A
O117       Ni123   1.942       .  S
O117        C127   1.287       .  A
O118       Ni123   1.946       .  S
O118        C128   1.287       .  A
O119       Ni124   1.908       .  S
O119        C128   1.280       .  A
O120       Ni124   1.913       .  S
O120        C127   1.280       .  A
O121       Ni124   1.940       .  S
O121        C126   1.287       .  A
O122       Ni124   1.937       .  S
O122        C125   1.286       .  A
Ni123      Ni124   2.383       .  S
C125        C483   1.486       .  S
C126        C595   1.490       .  S
C127        C411   1.494       .  S
C128        C939   1.494       .  S
O129       Ni137   1.916       .  S
O129        C139   1.281       .  A
O130       Ni137   1.913       .  S
O130        C140   1.282       .  A
O131       Ni137   1.916       .  S
O131        C141   1.282       .  A
O132       Ni137   1.919       .  S
O132        C142   1.282       .  A
O133       Ni138   1.916       .  S
O133        C142   1.282       .  A
O134       Ni138   1.920       .  S
O134        C141   1.282       .  A
O135       Ni138   1.914       .  S
O135        C140   1.280       .  A
O136       Ni138   1.911       .  S
O136        C139   1.282       .  A
Ni137      Ni138   2.387       .  S
C139        C723   1.479       .  S
C140        C555   1.476       .  S
C141        C435   1.483       .  S
C142        C635   1.483       .  S
C143        N144   1.369       .  A
C143        N148   1.365       .  A
C143        C403   1.497       .  S
N144        C145   1.366       .  A
C145        N146   1.354   1_556  A
C145        C379   1.489       .  S
N146        C147   1.352       .  A
C147        N148   1.358   1_554  A
C147        C491   1.485       .  S
C149        N150   1.365   1_554  A
C149        N154   1.368   1_554  A
C149        C419   1.496       .  S
N150        C151   1.362       .  A
C151        N152   1.353       .  A
C151        C363   1.485       .  S
N152        C153   1.352       .  A
C153        N154   1.363       .  A
C153        C387   1.489       .  S
C155        N156   1.360       .  A
C155        N160   1.364       .  A
C155        C731   1.487       .  S
N156        C157   1.357       .  A
C157        N158   1.353       .  A
C157        C331   1.478       .  S
N158        C159   1.356       .  A
C159        N160   1.363       .  A
C159        C347   1.479   1_655  S
C161        N162   1.364       .  A
C161        N166   1.366       .  A
C161        C323   1.489       .  S
N162        C163   1.360       .  A
C163        N164   1.352       .  A
C163        C339   1.481       .  S
N164        C165   1.352       .  A
C165        N166   1.359       .  A
C165        C299   1.475       .  S
O167       Ni175   1.926       .  S
O167        C177   1.284       .  A
O168       Ni175   1.926       .  S
O168        C178   1.284       .  A
O169       Ni175   1.911       .  S
O169        C179   1.281       .  A
O170       Ni175   1.914       .  S
O170        C180   1.280       .  A
O171       Ni176   1.928       .  S
O171        C180   1.285       .  A
O172       Ni176   1.932       .  S
O172        C179   1.284       .  A
O173       Ni176   1.910       .  S
O173        C178   1.280       .  A
O174       Ni176   1.908       .  S
O174        C177   1.279       .  A
Ni175      Ni176   2.385       .  S
C177        C371   1.482       .  S
C178        C819   1.482       .  S
C179        C315   1.487       .  S
C180        C707   1.487       .  S
C181        N182   1.357       .  A
C181        N186   1.364       .  A
C181        C763   1.486       .  S
N182        C183   1.355       .  A
C183        N184   1.355       .  A
C183        C275   1.484       .  S
N184        C185   1.361       .  A
C185        N186   1.363       .  A
C185        C291   1.486       .  S
C187        N188   1.368       .  A
C187        N192   1.361       .  A
C187        C251   1.489       .  S
N188        C189   1.365       .  A
C189        N190   1.355       .  A
C189        C267   1.486       .  S
N190        C191   1.350       .  A
C191        N192   1.354       .  A
C191        C235   1.476       .  S
O193       Ni201   1.924       .  S
O193        C203   1.283       .  A
O194       Ni201   1.922       .  S
O194        C204   1.283       .  A
O195       Ni201   1.928       .  S
O195        C205   1.283       .  A
O196       Ni201   1.928       .  S
O196        C206   1.283       .  A
O197       Ni202   1.930       .  S
O197        C206   1.284       .  A
O198       Ni202   1.934       .  S
O198        C205   1.285       .  A
O199       Ni202   1.920       .  S
O199        C204   1.282       .  A
O200       Ni202   1.920       .  S
O200        C203   1.282       .  A
Ni201      Ni202   2.383       .  S
C203        C619   1.487       .  S
C204        C259   1.487       .  S
C205        C867   1.497       .  S
C206        C395   1.495       .  S
O207       Ni215   1.903       .  S
O207        C217   1.279       .  A
O208       Ni215   1.908       .  S
O208        C218   1.279       .  A
O209       Ni215   1.927       .  S
O209        C219   1.284       .  A
O210       Ni215   1.926       .  S
O210        C220   1.284       .  A
O211       Ni216   1.908       .  S
O211        C220   1.279       .  A
O212       Ni216   1.903       .  S
O212        C219   1.279       .  A
O213       Ni216   1.936       .  S
O213        C218   1.286       .  A
O214       Ni216   1.938       .  S
O214        C217   1.285       .  A
Ni215      Ni216   2.385       .  S
C217        C283   1.487       .  S
C218        C571   1.488       .  S
C219        C651   1.480       .  S
C220        C355   1.481       .  S
O221       Ni229   1.915       .  S
O221        C231   1.281       .  A
O222       Ni229   1.912       .  S
O222        C232   1.281       .  A
O223       Ni229   1.913       .  S
O223        C233   1.282       .  A
O224       Ni229   1.915       .  S
O224        C234   1.280       .  A
O225       Ni230   1.914       .  S
O225        C234   1.282       .  A
O226       Ni230   1.916       .  S
O226        C233   1.281       .  A
O227       Ni230   1.917       .  S
O227        C232   1.281       .  A
O228       Ni230   1.912       .  S
O228        C231   1.281       .  A
Ni229      Ni230   2.387       .  S
C231        C243   1.478       .  S
C232        C459   1.479       .  S
C233        C515   1.478       .  S
C234        C307   1.479       .  S
C235        C236   1.406       .  A
C235        C240   1.406       .  A
C236        C237   1.393       .  A
C236        H245   1.083       .  S
C237        C238   1.399       .  A
C237        H246   1.083       .  S
C238        C244   1.400       .  A
C238        C239   1.414       .  A
C239        C241   1.402       .  A
C239        C240   1.404       .  A
C240        H247   1.083       .  S
C241        C242   1.398       .  A
C241        H248   1.083       .  S
C242        C243   1.407       .  A
C242        H249   1.083       .  S
C243        C244   1.405       .  A
C244        H250   1.084       .  S
C251        C252   1.409       .  A
C251        C256   1.409       .  A
C252        C253   1.394       .  A
C252        H261   1.083       .  S
C253        C254   1.398       .  A
C253        H262   1.084       .  S
C254        C260   1.404       .  A
C254        C255   1.414       .  A
C255        C257   1.403       .  A
C255        C256   1.410       .  A
C256        H263   1.084       .  S
C257        C258   1.401       .  A
C257        H264   1.084       .  S
C258        C259   1.408       .  A
C258        H265   1.083       .  S
C259        C260   1.406       .  A
C260        H266   1.084       .  S
C267        C268   1.410       .  A
C267        C272   1.409       .  A
C268        C269   1.390       .  A
C268        H277   1.083       .  S
C269        C270   1.396       .  A
C269        H278   1.084       .  S
C270        C276   1.399       .  A
C270        C271   1.414       .  A
C271        C273   1.404       .  A
C271        C272   1.411       .  A
C272        H279   1.083       .  S
C273        C274   1.402       .  A
C273        H280   1.083       .  S
C274        C275   1.408       .  A
C274        H281   1.083       .  S
C275        C276   1.404       .  A
C276        H282   1.084       .  S
C283        C284   1.407       .  A
C283        C288   1.406       .  A
C284        C285   1.406       .  A
C284        H293   1.083       .  S
C285        C286   1.407       .  A
C285        H294   1.083       .  S
C286        C292   1.412       .  A
C286        C287   1.412       .  A
C287        C289   1.398       .  A
C287        C288   1.399       .  A
C288        H295   1.083       .  S
C289        C290   1.391       .  A
C289        H296   1.083       .  S
C290        C291   1.407   1_565  A
C290        H297   1.083   1_565  S
C291        C292   1.412   1_545  A
C292        H298   1.083       .  S
C299        C300   1.406       .  A
C299        C304   1.406       .  A
C300        C301   1.391       .  A
C300        H309   1.083       .  S
C301        C302   1.398       .  A
C301        H310   1.084       .  S
C302        C308   1.399       .  A
C302        C303   1.415       .  A
C303        C305   1.403       .  A
C303        C304   1.408       .  A
C304        H311   1.084       .  S
C305        C306   1.401       .  A
C305        H312   1.083       .  S
C306        C307   1.407       .  A
C306        H313   1.083       .  S
C307        C308   1.403       .  A
C308        H314   1.084       .  S
C315        C316   1.408       .  A
C315        C320   1.409       .  A
C316        C317   1.395       .  A
C316        H325   1.083       .  S
C317        C318   1.399       .  A
C317        H326   1.083       .  S
C318        C324   1.404       .  A
C318        C319   1.414       .  A
C319        C321   1.403       .  A
C319        C320   1.410       .  A
C320        H327   1.083       .  S
C321        C322   1.401       .  A
C321        H328   1.083       .  S
C322        C323   1.409       .  A
C322        H329   1.083       .  S
C323        C324   1.407       .  A
C324        H330   1.083       .  S
C331        C332   1.407       .  A
C331        C336   1.404       .  A
C332        C333   1.397       .  A
C332        H341   1.083       .  S
C333        C334   1.401       .  A
C333        H342   1.084       .  S
C334        C340   1.405       .  A
C334        C335   1.415       .  A
C335        C337   1.398       .  A
C335        C336   1.401       .  A
C336        H343   1.085       .  S
C337        C338   1.393       .  A
C337        H344   1.084       .  S
C338        C339   1.409       .  A
C338        H345   1.083       .  S
C339        C340   1.405       .  A
C340        H346   1.084       .  S
C347        C348   1.407       .  A
C347        C352   1.405       .  A
C348        C349   1.394       .  A
C348        H357   1.083       .  S
C349        C350   1.399       .  A
C349        H358   1.083       .  S
C350        C356   1.404       .  A
C350        C351   1.415       .  A
C351        C353   1.401       .  A
C351        C352   1.406       .  A
C352        H359   1.084       .  S
C353        C354   1.398       .  A
C353        H360   1.083       .  S
C354        C355   1.408       .  A
C354        H361   1.083       .  S
C355        C356   1.404       .  A
C356        H362   1.084       .  S
C363        C364   1.410       .  A
C363        C368   1.406       .  A
C364        C365   1.394       .  A
C364        H373   1.083       .  S
C365        C366   1.398       .  A
C365        H374   1.084       .  S
C366        C372   1.404       .  A
C366        C367   1.415       .  A
C367        C369   1.400       .  A
C367        C368   1.407       .  A
C368        H375   1.083       .  S
C369        C370   1.397       .  A
C369        H376   1.083       .  S
C370        C371   1.408       .  A
C370        H377   1.083       .  S
C371        C372   1.405       .  A
C372        H378   1.084       .  S
C379        C380   1.412   1_556  A
C379        C384   1.405       .  A
C380        C381   1.396       .  A
C380        H389   1.083       .  S
C381        C382   1.398   1_554  A
C381        H390   1.084       .  S
C382        C388   1.409       .  A
C382        C383   1.416       .  A
C383        C385   1.398       .  A
C383        C384   1.409       .  A
C384        H391   1.083       .  S
C385        C386   1.396       .  A
C385        H392   1.083       .  S
C386        C387   1.411       .  A
C386        H393   1.083       .  S
C387        C388   1.406       .  A
C388        H394   1.084   1_556  S
C395        C396   1.409       .  A
C395        C400   1.409       .  A
C396        C397   1.403       .  A
C396        H405   1.083       .  S
C397        C398   1.404       .  A
C397        H406   1.084       .  S
C398        C404   1.414       .  A
C398        C399   1.414       .  A
C399        C401   1.400       .  A
C399        C400   1.410       .  A
C400        H407   1.084       .  S
C401        C402   1.398       .  A
C401        H408   1.084       .  S
C402        C403   1.409       .  A
C402        H409   1.083       .  S
C403        C404   1.412       .  A
C404        H410   1.084       .  S
C411        C412   1.406       .  A
C411        C416   1.412       .  A
C412        C413   1.404       .  A
C412        H421   1.083       .  S
C413        C414   1.406       .  A
C413        H422   1.082       .  S
C414        C420   1.412       .  A
C414        C415   1.412       .  A
C415        C417   1.403       .  A
C415        C416   1.408       .  A
C416        H423   1.083       .  S
C417        C418   1.399       .  A
C417        H424   1.083       .  S
C418        C419   1.408       .  A
C418        H425   1.083       .  S
C419        C420   1.414       .  A
C420        H426   1.083       .  S
C427        C428   1.405       .  A
C427        C432   1.408   1_565  A
C428        C429   1.395   1_565  A
C428        H437   1.083       .  S
C429        C430   1.401       .  A
C429        H438   1.083       .  S
C430        C436   1.402       .  A
C430        C431   1.413       .  A
C431        C433   1.403       .  A
C431        C432   1.406       .  A
C432        H439   1.084       .  S
C433        C434   1.399       .  A
C433        H440   1.083       .  S
C434        C435   1.407       .  A
C434        H441   1.083       .  S
C435        C436   1.407       .  A
C436        H442   1.083       .  S
C443        C444   1.407       .  A
C443        C448   1.408       .  A
C444        C445   1.400       .  A
C444        H453   1.083       .  S
C445        C446   1.403       .  A
C445        H454   1.083       .  S
C446        C452   1.406       .  A
C446        C447   1.412       .  A
C447        C449   1.400       .  A
C447        C448   1.402       .  A
C448        H455   1.083       .  S
C449        C450   1.395       .  A
C449        H456   1.083       .  S
C450        C451   1.407       .  A
C450        H457   1.083       .  S
C451        C452   1.409       .  A
C452        H458   1.083       .  S
C459        C460   1.406       .  A
C459        C464   1.405       .  A
C460        C461   1.399       .  A
C460        H469   1.083       .  S
C461        C462   1.403       .  A
C461        H470   1.083       .  S
C462        C468   1.405       .  A
C462        C463   1.413       .  A
C463        C465   1.399       .  A
C463        C464   1.400       .  A
C464        H471   1.084       .  S
C465        C466   1.394       .  A
C465        H472   1.083       .  S
C466        C467   1.407       .  A
C466        H473   1.083       .  S
C467        C468   1.407       .  A
C468        H474   1.083       .  S
C475        C476   1.408       .  A
C475        C480   1.406       .  A
C476        C477   1.400       .  A
C476        H485   1.083       .  S
C477        C478   1.403       .  A
C477        H486   1.084       .  S
C478        C484   1.410       .  A
C478        C479   1.414       .  A
C479        C481   1.399       .  A
C479        C480   1.403       .  A
C480        H487   1.085       .  S
C481        C482   1.394       .  A
C481        H488   1.084       .  S
C482        C483   1.409       .  A
C482        H489   1.083       .  S
C483        C484   1.408       .  A
C484        H490   1.084       .  S
C491        C492   1.408       .  A
C491        C496   1.408       .  A
C492        C493   1.393       .  A
C492        H501   1.083       .  S
C493        C494   1.398       .  A
C493        H502   1.084       .  S
C494        C500   1.402       .  A
C494        C495   1.414       .  A
C495        C497   1.403       .  A
C495        C496   1.409       .  A
C496        H503   1.084       .  S
C497        C498   1.401       .  A
C497        H504   1.083       .  S
C498        C499   1.408       .  A
C498        H505   1.083       .  S
C499        C500   1.405       .  A
C500        H506   1.084       .  S
C507        C508   1.405       .  A
C507        C512   1.405       .  A
C508        C509   1.391       .  A
C508        H517   1.084       .  S
C509        C510   1.398       .  A
C509        H518   1.084       .  S
C510        C516   1.398       .  A
C510        C511   1.415       .  A
C511        C513   1.403       .  A
C511        C512   1.407       .  A
C512        H519   1.084       .  S
C513        C514   1.400       .  A
C513        H520   1.083       .  S
C514        C515   1.407       .  A
C514        H521   1.083       .  S
C515        C516   1.403       .  A
C516        H522   1.084       .  S
C523        C524   1.407       .  A
C523        C528   1.408       .  A
C524        C525   1.396       .  A
C524        H533   1.083       .  S
C525        C526   1.400       .  A
C525        H534   1.083       .  S
C526        C532   1.405       .  A
C526        C527   1.414       .  A
C527        C529   1.401       .  A
C527        C528   1.406       .  A
C528        H535   1.084       .  S
C529        C530   1.398       .  A
C529        H536   1.083       .  S
C530        C531   1.408       .  A
C530        H537   1.083       .  S
C531        C532   1.407       .  A
C532        H538   1.084       .  S
C539        C540   1.409       .  A
C539        C544   1.404       .  A
C540        C541   1.394       .  A
C540        H549   1.083       .  S
C541        C542   1.399       .  A
C541        H550   1.084       .  S
C542        C548   1.402       .  A
C542        C543   1.415       .  A
C543        C545   1.398       .  A
C543        C544   1.402       .  A
C544        H551   1.084       .  S
C545        C546   1.394       .  A
C545        H552   1.084       .  S
C546        C547   1.409       .  A
C546        H553   1.083       .  S
C547        C548   1.404       .  A
C548        H554   1.084       .  S
C555        C556   1.406       .  A
C555        C560   1.403       .  A
C556        C557   1.399       .  A
C556        H565   1.083       .  S
C557        C558   1.403       .  A
C557        H566   1.084       .  S
C558        C564   1.405       .  A
C558        C559   1.415       .  A
C559        C561   1.398       .  A
C559        C560   1.398       .  A
C560        H567   1.085       .  S
C561        C562   1.391       .  A
C561        H568   1.084       .  S
C562        C563   1.406       .  A
C562        H569   1.083       .  S
C563        C564   1.405       .  A
C564        H570   1.084       .  S
C571        C572   1.409       .  A
C571        C576   1.406       .  A
C572        C573   1.399       .  A
C572        H581   1.083       .  S
C573        C574   1.401       .  A
C573        H582   1.083       .  S
C574        C580   1.411       .  A
C574        C575   1.415       .  A
C575        C577   1.399       .  A
C575        C576   1.408       .  A
C576        H583   1.083       .  S
C577        C578   1.396       .  A
C577        H584   1.083       .  S
C578        C579   1.410       .  A
C578        H585   1.083       .  S
C579        C580   1.408       .  A
C580        H586   1.083       .  S
C587        C588   1.410       .  A
C587        C592   1.409       .  A
C588        C589   1.399       .  A
C588        H597   1.083       .  S
C589        C590   1.400       .  A
C589        H598   1.083       .  S
C590        C596   1.411       .  A
C590        C591   1.415       .  A
C591        C593   1.401       .  A
C591        C592   1.411       .  A
C592        H599   1.083       .  S
C593        C594   1.398       .  A
C593        H600   1.083       .  S
C594        C595   1.409       .  A
C594        H601   1.083       .  S
C595        C596   1.407       .  A
C596        H602   1.083       .  S
C603        C604   1.410       .  A
C603        C608   1.407   1_654  A
C604        C605   1.395       .  A
C604        H613   1.083       .  S
C605        C606   1.399       .  A
C605        H614   1.083       .  S
C606        C612   1.405       .  A
C606        C607   1.414   1_654  A
C607        C609   1.401       .  A
C607        C608   1.408       .  A
C608        H615   1.083       .  S
C609        C610   1.398       .  A
C609        H616   1.083       .  S
C610        C611   1.409       .  A
C610        H617   1.083       .  S
C611        C612   1.406   1_456  A
C612        H618   1.084       .  S
C619        C620   1.407       .  A
C619        C624   1.408       .  A
C620        C621   1.400       .  A
C620        H629   1.083       .  S
C621        C622   1.403       .  A
C621        H630   1.084       .  S
C622        C628   1.409       .  A
C622        C623   1.413       .  A
C623        C625   1.401       .  A
C623        C624   1.406       .  A
C624        H631   1.084       .  S
C625        C626   1.398       .  A
C625        H632   1.084       .  S
C626        C627   1.408       .  A
C626        H633   1.083       .  S
C627        C628   1.410       .  A
C628        H634   1.084       .  S
C635        C636   1.407       .  A
C635        C640   1.406       .  A
C636        C637   1.400       .  A
C636        H645   1.083       .  S
C637        C638   1.403       .  A
C637        H646   1.083       .  S
C638        C644   1.408       .  A
C638        C639   1.414       .  A
C639        C641   1.399       .  A
C639        C640   1.402       .  A
C640        H647   1.084       .  S
C641        C642   1.394       .  A
C641        H648   1.083       .  S
C642        C643   1.407       .  A
C642        H649   1.083       .  S
C643        C644   1.408       .  A
C644        H650   1.084       .  S
C651        C652   1.407       .  A
C651        C656   1.407       .  A
C652        C653   1.393       .  A
C652        H661   1.083       .  S
C653        C654   1.398       .  A
C653        H662   1.084       .  S
C654        C660   1.400       .  A
C654        C655   1.414       .  A
C655        C657   1.402       .  A
C655        C656   1.406       .  A
C656        H663   1.084       .  S
C657        C658   1.399       .  A
C657        H664   1.083       .  S
C658        C659   1.407       .  A
C658        H665   1.083       .  S
C659        C660   1.405       .  A
C660        H666   1.084       .  S
C667        C668   1.405       .  A
C667        C672   1.407       .  A
C668        C669   1.398       .  A
C668        H677   1.083       .  S
C669        C670   1.402       .  A
C669        H678   1.083       .  S
C670        C676   1.403       .  A
C670        C671   1.412       .  A
C671        C673   1.401       .  A
C671        C672   1.402       .  A
C672        H679   1.084       .  S
C673        C674   1.396       .  A
C673        H680   1.083       .  S
C674        C675   1.406       .  A
C674        H681   1.083       .  S
C675        C676   1.408       .  A
C676        H682   1.083       .  S
C683        C684   1.410       .  A
C683        C688   1.407   1_544  A
C684        C685   1.392       .  A
C684        H693   1.083       .  S
C685        C686   1.397       .  A
C685        H694   1.084       .  S
C686        C692   1.402       .  A
C686        C687   1.414   1_544  A
C687        C689   1.402       .  A
C687        C688   1.408       .  A
C688        H695   1.084       .  S
C689        C690   1.399       .  A
C689        H696   1.083       .  S
C690        C691   1.408   1_556  A
C690        H697   1.083       .  S
C691        C692   1.405   1_565  A
C692        H698   1.084       .  S
C699        C700   1.408       .  A
C699        C704   1.409       .  A
C700        C701   1.396       .  A
C700        H709   1.083       .  S
C701        C702   1.400       .  A
C701        H710   1.083       .  S
C702        C708   1.405       .  A
C702        C703   1.414       .  A
C703        C705   1.402       .  A
C703        C704   1.409       .  A
C704        H711   1.084       .  S
C705        C706   1.400       .  A
C705        H712   1.083       .  S
C706        C707   1.409       .  A
C706        H713   1.083       .  S
C707        C708   1.406       .  A
C708        H714   1.083       .  S
C715        C716   1.406       .  A
C715        C720   1.407       .  A
C716        C717   1.391       .  A
C716        H725   1.083       .  S
C717        C718   1.398       .  A
C717        H726   1.084       .  S
C718        C724   1.398       .  A
C718        C719   1.414       .  A
C719        C721   1.403       .  A
C719        C720   1.407       .  A
C720        H727   1.084       .  S
C721        C722   1.400       .  A
C721        H728   1.084       .  S
C722        C723   1.407       .  A
C722        H729   1.083       .  S
C723        C724   1.403       .  A
C724        H730   1.084       .  S
C731        C732   1.408       .  A
C731        C736   1.409   1_655  A
C732        C733   1.395       .  A
C732        H741   1.083       .  S
C733        C734   1.400       .  A
C733        H742   1.083       .  S
C734        C740   1.404       .  A
C734        C735   1.413   1_655  A
C735        C737   1.403       .  A
C735        C736   1.408       .  A
C736        H743   1.083       .  S
C737        C738   1.400       .  A
C737        H744   1.083       .  S
C738        C739   1.407       .  A
C738        H745   1.083       .  S
C739        C740   1.406   1_455  A
C740        H746   1.084       .  S
C747        C748   1.408       .  A
C747        C752   1.408       .  A
C748        C749   1.397       .  A
C748        H757   1.083       .  S
C749        C750   1.401       .  A
C749        H758   1.083       .  S
C750        C756   1.404       .  A
C750        C751   1.413       .  A
C751        C753   1.402   1_455  A
C751        C752   1.405       .  A
C752        H759   1.083   1_455  S
C753        C754   1.398       .  A
C753        H760   1.083       .  S
C754        C755   1.407   1_655  A
C754        H761   1.083       .  S
C755        C756   1.407       .  A
C756        H762   1.083       .  S
C763        C764   1.410       .  A
C763        C768   1.406       .  A
C764        C765   1.396       .  A
C764        H773   1.083       .  S
C765        C766   1.399       .  A
C765        H774   1.083       .  S
C766        C772   1.405       .  A
C766        C767   1.415       .  A
C767        C769   1.400   1_545  A
C767        C768   1.406       .  A
C768        H775   1.083       .  S
C769        C770   1.396       .  A
C769        H776   1.083       .  S
C770        C771   1.408   1_565  A
C770        H777   1.083       .  S
C771        C772   1.404       .  A
C772        H778   1.083       .  S
C779        C780   1.407       .  A
C779        C784   1.410       .  A
C780        C781   1.393       .  A
C780        H789   1.084       .  S
C781        C782   1.400       .  A
C781        H790   1.083       .  S
C782        C788   1.398       .  A
C782        C783   1.412       .  A
C783        C785   1.405   1_565  A
C783        C784   1.406       .  A
C784        H791   1.083   1_565  S
C785        C786   1.402       .  A
C785        H792   1.082       .  S
C786        C787   1.405       .  A
C786        H793   1.083       .  S
C787        C788   1.407   1_545  A
C788        H794   1.083       .  S
C795        C796   1.410       .  A
C795        C800   1.406       .  A
C796        C797   1.400       .  A
C796        H805   1.083       .  S
C797        C798   1.401       .  A
C797        H806   1.083       .  S
C798        C804   1.413       .  A
C798        C799   1.416       .  A
C799        C801   1.398   1_545  A
C799        C800   1.409       .  A
C800        H807   1.084   1_545  S
C801        C802   1.396   1_565  A
C801        H808   1.084       .  S
C802        C803   1.410       .  A
C802        H809   1.083   1_545  S
C803        C804   1.408       .  A
C804        H810   1.084       .  S
C811        C812   1.407       .  A
C811        C816   1.410   1_545  A
C812        C813   1.396   1_545  A
C812        H821   1.083       .  S
C813        C814   1.401       .  A
C813        H822   1.083       .  S
C814        C820   1.403       .  A
C814        C815   1.412       .  A
C815        C817   1.403       .  A
C815        C816   1.405       .  A
C816        H823   1.083       .  S
C817        C818   1.399       .  A
C817        H824   1.082       .  S
C818        C819   1.406       .  A
C818        H825   1.083       .  S
C819        C820   1.408       .  A
C820        H826   1.083       .  S
C827        C828   1.412       .  A
C827        C832   1.407       .  A
C828        C829   1.398       .  A
C828        H837   1.083       .  S
C829        C830   1.399       .  A
C829        H838   1.083       .  S
C830        C836   1.412       .  A
C830        C831   1.415       .  A
C831        C833   1.399       .  A
C831        C832   1.412       .  A
C832        H839   1.083       .  S
C833        C834   1.398       .  A
C833        H840   1.082       .  S
C834        C835   1.412       .  A
C834        H841   1.083       .  S
C835        C836   1.408       .  A
C836        H842   1.083       .  S
C843        C844   1.409       .  A
C843        C848   1.409       .  A
C844        C845   1.397       .  A
C844        H853   1.083       .  S
C845        C846   1.400       .  A
C845        H854   1.083       .  S
C846        C852   1.406       .  A
C846        C847   1.414       .  A
C847        C849   1.402   1_655  A
C847        C848   1.408       .  A
C848        H855   1.083       .  S
C849        C850   1.399       .  A
C849        H856   1.082       .  S
C850        C851   1.406   1_455  A
C850        H857   1.084       .  S
C851        C852   1.406       .  A
C852        H858   1.083       .  S
C859        C860   1.410   1_655  A
C859        C864   1.413       .  A
C860        C861   1.398       .  A
C860        H869   1.083       .  S
C861        C862   1.401       .  A
C861        H870   1.084       .  S
C862        C868   1.410       .  A
C862        C863   1.413       .  A
C863        C865   1.405       .  A
C863        C864   1.416   1_455  A
C864        H871   1.084       .  S
C865        C866   1.404       .  A
C865        H872   1.083   1_455  S
C866        C867   1.409       .  A
C866        H873   1.082       .  S
C867        C868   1.410       .  A
C868        H874   1.084       .  S
C875        C876   1.408       .  A
C875        C880   1.408       .  A
C876        C877   1.405       .  A
C876        H885   1.083       .  S
C877        C878   1.405       .  A
C877        H886   1.082       .  S
C878        C884   1.415       .  A
C878        C879   1.413       .  A
C879        C881   1.398   1_565  A
C879        C880   1.404       .  A
C880        H887   1.083   1_565  S
C881        C882   1.394       .  A
C881        H888   1.083       .  S
C882        C883   1.409   1_545  A
C882        H889   1.083       .  S
C883        C884   1.412       .  A
C884        H890   1.083       .  S
C891        C892   1.407       .  A
C891        C896   1.407   1_565  A
C892        C893   1.391   1_565  A
C892        H901   1.084       .  S
C893        C894   1.398       .  A
C893        H902   1.083       .  S
C894        C900   1.401       .  A
C894        C895   1.415       .  A
C895        C897   1.404       .  A
C895        C896   1.410       .  A
C896        H903   1.083       .  S
C897        C898   1.402       .  A
C897        H904   1.083       .  S
C898        C899   1.407       .  A
C898        H905   1.083       .  S
C899        C900   1.404       .  A
C900        H906   1.084       .  S
C907        C908   1.411       .  A
C907        C912   1.407       .  A
C908        C909   1.391       .  A
C908        H917   1.083       .  S
C909        C910   1.396       .  A
C909        H918   1.083       .  S
C910        C916   1.403       .  A
C910        C911   1.415       .  A
C911        C913   1.401       .  A
C911        C912   1.411       .  A
C912        H919   1.083       .  S
C913        C914   1.400       .  A
C913        H920   1.083       .  S
C914        C915   1.410       .  A
C914        H921   1.083       .  S
C915        C916   1.403       .  A
C916        H922   1.083       .  S
C923        C924   1.406   1_455  A
C923        C928   1.408       .  A
C924        C925   1.403       .  A
C924        H933   1.083       .  S
C925        C926   1.406   1_655  A
C925        H934   1.084       .  S
C926        C932   1.409       .  A
C926        C927   1.412       .  A
C927        C929   1.400       .  A
C927        C928   1.400       .  A
C928        H935   1.085       .  S
C929        C930   1.394       .  A
C929        H936   1.084       .  S
C930        C931   1.407       .  A
C930        H937   1.083       .  S
C931        C932   1.411       .  A
C932        H938   1.084   1_455  S
C939        C940   1.410       .  A
C939        C944   1.411       .  A
C940        C941   1.395       .  A
C940        H949   1.083       .  S
C941        C942   1.398       .  A
C941        H950   1.083       .  S
C942        C948   1.408       .  A
C942        C943   1.414       .  A
C943        C945   1.404       .  A
C943        C944   1.415       .  A
C944        H951   1.083       .  S
C945        C946   1.403   1_655  A
C945        H952   1.082       .  S
C946        C947   1.410   1_455  A
C946        H953   1.083       .  S
C947        C948   1.407       .  A
C948        H954   1.083       .  S
