geometry optimzed in LAMMPS
_audit_creation_date              2020-11-30 
_audit_creation_method            'lammps2cif' 
_symmetry_space_group_name_H-M    'P1' 
_symmetry_Int_Tables_number       1 
_symmetry_cell_setting            triclinic 
loop_ 
_symmetry_equiv_pos_as_xyz 
  x,y,z 
_cell_length_a                    66.70446538 
_cell_length_b                    42.37908614208159 
_cell_length_c                    26.500916376730558 
_cell_angle_alpha                 90.60966708823017 
_cell_angle_beta                  86.83238973962773 
_cell_angle_gamma                 91.71085849282696 
loop_ 
_atom_site_label 
_atom_site_type_symbol 
_atom_site_fract_x 
_atom_site_fract_y 
_atom_site_fract_z 
_atom_site_charge 
Zn1        Zn  0.62401823  0.36345573  0.70939247     1.49700
Zn2        Zn  0.61388020  0.37052553  0.59205255     1.49400
Zn3        Zn  0.64966109  0.41239092  0.63999990     1.49100
Zn4        Zn  0.65459403  0.33949982  0.61940011     1.49500
O5          O  0.63533843  0.37147286  0.64039175    -1.83100
O6          O  0.59372105  0.35855054  0.70945082    -0.73700
O7          O  0.61524551  0.41090995  0.55092288    -0.73500
O8          O  0.64665738  0.43513037  0.70730923    -0.73100
O9          O  0.58673529  0.36792349  0.62991495    -0.73700
O10         O  0.62951508  0.40070648  0.75680627    -0.73300
O11         O  0.63901357  0.43964767  0.58745929    -0.73900
O12         O  0.68187503  0.35827383  0.59885165    -0.73300
O13         O  0.61564863  0.33200211  0.54451739    -0.74100
O14         O  0.67911451  0.40879498  0.62024853    -0.73500
O15         O  0.64506447  0.31276871  0.56196170    -0.73900
O16         O  0.65780651  0.30962426  0.67586124    -0.73800
O17         O  0.63557916  0.32367258  0.73718927    -0.73600
C18         C  0.58109851  0.36235533  0.67581069     0.78200
C19         C  0.62591669  0.43626115  0.55463520     0.78700
C20         C  0.63832313  0.42757243  0.75008429     0.77600
C21         C  0.68947402  0.38604869  0.60275995     0.78000
C22         C  0.62927071  0.31165479  0.53719680     0.79100
C23         C  0.64911891  0.30535186  0.71924018     0.78200
C24         C  0.57912990  0.11569343  0.32549151    -0.01400
C25         C  0.66775080  0.12634712  0.98237156    -0.01400
Zn26       Zn  0.88125301  0.16202234  0.15905204     1.49700
Zn27       Zn  0.88368318  0.08666262  0.16493132     1.49400
Zn28       Zn  0.84281863  0.12125973  0.20048212     1.49100
Zn29       Zn  0.85566808  0.11862619  0.08489574     1.49500
O30         O  0.86606128  0.12203511  0.15238370    -1.83100
O31         O  0.90962503  0.15456940  0.17775349    -0.73700
O32         O  0.87292335  0.06248791  0.22727427    -0.73500
O33         O  0.84176730  0.16092759  0.24177363    -0.73100
O34         O  0.91215630  0.10239185  0.17877817    -0.73700
O35         O  0.86862832  0.18939227  0.21428782    -0.73300
O36         O  0.84423118  0.08587344  0.24884808    -0.73900
O37         O  0.82534005  0.11844512  0.08535539    -0.73300
O38         O  0.88464143  0.05651113  0.10422212    -0.74100
O39         O  0.81654526  0.11695094  0.16720442    -0.73500
O40         O  0.86426002  0.07845222  0.05168351    -0.73900
O41         O  0.86613812  0.15436859  0.04111389    -0.73800
O42         O  0.88273218  0.18594734  0.09301143    -0.73600
C43         C  0.91983644  0.13013185  0.18377657     0.78200
C44         C  0.85703279  0.06502348  0.25599362     0.78700
C45         C  0.85298416  0.18560390  0.24366476     0.77600
C46         C  0.81191700  0.11702729  0.12135660     0.78000
C47         C  0.87576139  0.05648067  0.06271388     0.79100
C48         C  0.87629779  0.17954427  0.04950590     0.78200
C49         C  0.92509183  0.37281675  0.82566443    -0.01400
C50         C  0.84316619  0.37481284  0.50047641    -0.01400
Zn51       Zn  0.39072768  0.15814921  0.34794771     1.49700
Zn52       Zn  0.36193721  0.13394630  0.43995224     1.49400
Zn53       Zn  0.34636076  0.13271979  0.32660050     1.47900
Zn54       Zn  0.38025449  0.08487690  0.35919658     1.49500
O55         O  0.36964084  0.12732879  0.36834346    -1.83100
O56         O  0.39616569  0.18828131  0.40452347    -0.73700
O57         O  0.33210010  0.13870777  0.44868283    -0.73500
O58         O  0.35036560  0.17198441  0.28216394    -0.73100
O59         O  0.37574157  0.17275050  0.46909849    -0.73700
O60         O  0.38255594  0.18470391  0.29152257    -0.73300
O61         O  0.32040808  0.13632944  0.37154705    -0.73900
O62         O  0.36584215  0.06097131  0.30497579    -0.73300
O63         O  0.36903539  0.09666688  0.48172990    -0.74100
O64         O  0.34368894  0.09484650  0.27930755    -0.73500
O65         O  0.37895085  0.06062436  0.42492046    -0.73900
O66         O  0.40971698  0.08701447  0.33734381    -0.73800
O67         O  0.41693438  0.13815177  0.32791191    -0.73600
C68         C  0.38925751  0.19154448  0.44985046     0.78200
C69         C  0.31756116  0.13875495  0.41951888     0.78700
C70         C  0.36607769  0.18904635  0.27115860     0.77600
C71         C  0.35221682  0.06830654  0.27562121     0.78000
C72         C  0.37522252  0.06918846  0.47067537     0.79100
C73         C  0.42221541  0.10954747  0.32681756     0.78200
C74         C  0.42320243  0.38026489  0.68928785    -0.01400
C75         C  0.33381952  0.37491826  0.03181664    -0.01400
Zn76       Zn  0.15012028  0.34316106  0.89947367     1.49700
Zn77       Zn  0.12088712  0.37003820  0.81758956     1.49400
Zn78       Zn  0.11386725  0.38530486  0.93646028     1.49100
Zn79       Zn  0.15060744  0.41706508  0.87571041     1.49500
O80         O  0.13388988  0.37867267  0.88169074    -1.83100
O81         O  0.15199613  0.31257069  0.84103409    -0.73700
O82         O  0.09044302  0.36703849  0.82985042    -0.73500
O83         O  0.11352415  0.35134833  0.98774525    -0.73100
O84         O  0.13114471  0.32918369  0.78478386    -0.73700
O85         O  0.13736710  0.31898152  0.96000157    -0.73300
O86         O  0.08669918  0.38318820  0.90995334    -0.73900
O87         O  0.14252326  0.44985480  0.92786286    -0.73300
O88         O  0.12693919  0.40623407  0.76850167    -0.74100
O89         O  0.11715540  0.42672295  0.97222781    -0.73500
O90         O  0.14859656  0.43716489  0.80830764    -0.73900
O91         O  0.17921399  0.40810748  0.88652790    -0.73800
O92         O  0.17858485  0.35836063  0.91294788    -0.73600
C93         C  0.14373928  0.30942338  0.79901993     0.78200
C94         C  0.07936011  0.37450074  0.86869228     0.78700
C95         C  0.12291244  0.32594743  0.99129946     0.77600
C96         C  0.12912203  0.45019328  0.96382470     0.78000
C97         C  0.13828945  0.43092857  0.77025535     0.79100
C98         C  0.18795425  0.38455242  0.90361550     0.78200
C99         C  0.07500636  0.12854897  0.20816144    -0.01400
C100        C  0.16289488  0.12533746  0.52900947    -0.01400
C101        C  0.12788110  0.13021231  0.41509013     0.19700
C102        C  0.11935657  0.15520581  0.39023055    -0.18400
C103        C  0.10713609  0.14942212  0.34968541    -0.10600
C104        C  0.10319540  0.11832989  0.33295406     0.22000
C105        C  0.11143989  0.09331888  0.35838606    -0.20000
C106        C  0.12361716  0.09909293  0.39897732    -0.10800
C107        C  0.09300069  0.11124197  0.28541303    -0.15000
C108        C  0.08095797  0.13142732  0.26310958    -0.28800
C109        C  0.14222743  0.13775017  0.45489675    -0.03100
C110        C  0.14740307  0.11707259  0.48999588    -0.39600
H111        H  0.12257231  0.17940443  0.40143799     0.13100
H112        H  0.10168926  0.16948034  0.33021779     0.12800
H113        H  0.10897322  0.06919290  0.34573257     0.12200
H114        H  0.13029603  0.07913129  0.41591329     0.12400
H115        H  0.09684998  0.08916450  0.26679861     0.15200
H116        H  0.07665140  0.15287078  0.28311626     0.14000
H117        H  0.14883747  0.16149632  0.45556914     0.11600
H118        H  0.14036727  0.09366514  0.49086998     0.13600
C119        C  0.14737238  0.24656212  0.69174438     0.19700
C120        C  0.13374033  0.23253648  0.65912010    -0.18400
C121        C  0.13894777  0.20597040  0.62979582    -0.10600
C122        C  0.15812638  0.19308755  0.63193747     0.22000
C123        C  0.17177874  0.20734400  0.66424334    -0.20000
C124        C  0.16658518  0.23384217  0.69345639    -0.10800
C125        C  0.16450628  0.16463547  0.60222940    -0.15000
C126        C  0.15582592  0.15404629  0.56023989    -0.28800
C127        C  0.14124762  0.27454459  0.72295814    -0.03100
C128        C  0.14944059  0.28195886  0.76702493    -0.39600
H129        H  0.11886374  0.24184778  0.65696040     0.13100
H130        H  0.12772909  0.19540705  0.60647853     0.12800
H131        H  0.18667253  0.19809834  0.66654893     0.12200
H132        H  0.17781602  0.24448712  0.71669492     0.12400
H133        H  0.17712230  0.15212435  0.61553970     0.15200
H134        H  0.14299897  0.16637063  0.54767582     0.14000
H135        H  0.12918027  0.28865531  0.71032043     0.11600
H136        H  0.16063737  0.26690183  0.78144135     0.13600
C137        C  0.15106616  0.50449897  0.68887351     0.19700
C138        C  0.16879349  0.02184317  0.67691778    -0.18400
C139        C  0.16831015  0.04800241  0.64524162    -0.10600
C140        C  0.15050217  0.05540018  0.62243801     0.22000
C141        C  0.13333290  0.03591788  0.63173363    -0.20000
C142        C  0.13387638  0.00954706  0.66297596    -0.10800
C143        C  0.14904713  0.08396108  0.59078339    -0.15000
C144        C  0.16474142  0.09664444  0.56294099    -0.28800
C145        C  0.15155544  0.47889122  0.72653771    -0.03100
C146        C  0.13887749  0.45351136  0.72801881    -0.39600
H147        H  0.18224557  0.51825915  0.69655565     0.13100
H148        H  0.18169504  0.06293617  0.64016694     0.12800
H149        H  0.11937517  0.04129409  0.61507065     0.12200
H150        H  0.11941659  0.49889364  0.67445805     0.12400
H151        H  0.13436402  0.09411046  0.58834067     0.15200
H152        H  0.17915229  0.08541477  0.56317227     0.14000
H153        H  0.16277919  0.48132540  0.75465897     0.11600
H154        H  0.12831338  0.44965740  0.69870115     0.13600
C155        C  0.08811234  0.20372469  0.12600574     0.19700
C156        C  0.07939731  0.23279012  0.11801500    -0.18400
C157        C  0.08957094  0.25579409  0.08816288    -0.10600
C158        C  0.10874129  0.25011389  0.06532528     0.22000
C159        C  0.11730630  0.22081955  0.07271058    -0.20000
C160        C  0.10716792  0.19787500  0.10279094    -0.10800
C161        C  0.11938878  0.27312046  0.03041639    -0.15000
C162        C  0.11574031  0.30412975  0.03176785    -0.28800
C163        C  0.07645637  0.17922398  0.15579607    -0.03100
C164        C  0.08544894  0.15689237  0.18156960    -0.39600
H165        H  0.06458447  0.23760551  0.13457547     0.13100
H166        H  0.08199120  0.27748293  0.08179575     0.12800
H167        H  0.13179805  0.21553486  0.05466870     0.12200
H168        H  0.11404441  0.17526111  0.10641230     0.12400
H169        H  0.12996054  0.26404046  0.00154932     0.15200
H170        H  0.10558284  0.31363887  0.06108480     0.14000
H171        H  0.06020356  0.17981500  0.15619173     0.11600
H172        H  0.10169323  0.15835013  0.18334767     0.13600
C173        C  0.09930095  0.06556977  0.11491103     0.19700
C174        C  0.10652932  0.06705521  0.06423736    -0.18400
C175        C  0.11121771  0.03963663  0.03715884    -0.10600
C176        C  0.11029990  0.51024693  0.06389723     0.22000
C177        C  0.10264455  0.50869092  0.11420822    -0.20000
C178        C  0.09723408  0.03594135  0.13846620    -0.10800
C179        C  0.11402914  0.48058899  0.03532441    -0.15000
C180        C  0.12723241  0.47890013  0.99523201    -0.28800
C181        C  0.09418891  0.09557880  0.14114355    -0.03100
C182        C  0.08194764  0.09759255  0.18336054    -0.39600
H183        H  0.10821257  0.08955364  0.04512885     0.13100
H184        H  0.11605740  0.04171087  0.99768848     0.12800
H185        H  0.10035244  0.48605994  0.13267205     0.12200
H186        H  0.09225422  0.03376293  0.17778615     0.12400
H187        H  0.10550495  0.45950343  0.04759231     0.15200
H188        H  0.13673855  0.49921550  0.98436721     0.14000
H189        H  0.09994915  0.11689891  0.12251074     0.11600
H190        H  0.07537247  0.07611567  0.19999738     0.13600
C191        C  0.24116013  0.37214482  0.94830589     0.19700
C192        C  0.24853595  0.35362454  0.98629322    -0.18400
C193        C  0.26792355  0.35909815  0.00250621    -0.10600
C194        C  0.28047534  0.38304318  0.98041977     0.22000
C195        C  0.27322133  0.40128667  0.94196359    -0.20000
C196        C  0.25386243  0.39574934  0.92563269    -0.10800
C197        C  0.30102280  0.39004813  0.99704487    -0.15000
C198        C  0.31235723  0.36812609  0.01712653    -0.28800
C199        C  0.22008774  0.36650455  0.93418129    -0.03100
C200        C  0.20939424  0.38883229  0.91332814    -0.39600
H201        H  0.23908458  0.33533137  0.00437533     0.13100
H202        H  0.27276172  0.34505422  0.03316546     0.12800
H203        H  0.28264392  0.41971994  0.92416819     0.12200
H204        H  0.24906630  0.40988456  0.89504656     0.12400
H205        H  0.30738993  0.41363333  0.99049474     0.15200
H206        H  0.30613498  0.34429211  0.02181554     0.14000
H207        H  0.21274052  0.34406731  0.94439347     0.11600
H208        H  0.21613147  0.41195992  0.90533042     0.13600
C209        C  0.37226841  0.37784807  0.91392941     0.19700
C210        C  0.39281746  0.37306759  0.90339525    -0.18400
C211        C  0.40131520  0.37616131  0.85406019    -0.10600
C212        C  0.38928767  0.38378400  0.81412191     0.22000
C213        C  0.36884552  0.38909676  0.82492395    -0.20000
C214        C  0.36041288  0.38625139  0.87413868    -0.10800
C215        C  0.39680734  0.38294669  0.76028066    -0.15000
C216        C  0.41631101  0.38584484  0.74443116    -0.28800
C217        C  0.36309369  0.37079816  0.96519998    -0.03100
C218        C  0.34622300  0.38458414  0.98370123    -0.39600
H219        H  0.40221305  0.36614849  0.93322106     0.13100
H220        H  0.41701954  0.37104775  0.84714864     0.12800
H221        H  0.35919047  0.39454032  0.79480911     0.12200
H222        H  0.34439526  0.38910896  0.88027709     0.12400
H223        H  0.38575110  0.37878641  0.73208881     0.15200
H224        H  0.42752134  0.39162289  0.77153306     0.14000
H225        H  0.37021250  0.35333308  0.98732003     0.11600
H226        H  0.34061293  0.40394824  0.96255586     0.13600
C227        C  0.22080996  0.13786175  0.49502016     0.19700
C228        C  0.23757814  0.12927363  0.52086084    -0.18400
C229        C  0.25672678  0.12947478  0.49672807    -0.10600
C230        C  0.25975662  0.13894776  0.44602258     0.22000
C231        C  0.24299751  0.14765601  0.42003493    -0.20000
C232        C  0.22372797  0.14733441  0.44425676    -0.10800
C233        C  0.28004682  0.13885726  0.41910576    -0.15000
C234        C  0.29715619  0.14121554  0.44381172    -0.28800
C235        C  0.20073175  0.13599302  0.52267019    -0.03100
C236        C  0.18313942  0.13237506  0.50017085    -0.39600
H237        H  0.23580371  0.12164303  0.55981257     0.13100
H238        H  0.26897055  0.12139493  0.51782668     0.12800
H239        H  0.24484398  0.15493166  0.38094313     0.12200
H240        H  0.21129813  0.15477150  0.42319011     0.12400
H241        H  0.28090105  0.13696187  0.37814438     0.15200
H242        H  0.29642261  0.14468628  0.48444232     0.14000
H243        H  0.20070721  0.13414673  0.56349250     0.11600
H244        H  0.18348259  0.13190002  0.45910577     0.13600
C245        C  0.34896006  0.30971155  0.12549551     0.19700
C246        C  0.36097022  0.30804276  0.16706885    -0.18400
C247        C  0.36138778  0.28035149  0.19498130    -0.10600
C248        C  0.34967997  0.25358396  0.18205529     0.22000
C249        C  0.33743306  0.25529857  0.14088546    -0.20000
C250        C  0.33713173  0.28301865  0.11261304    -0.10800
C251        C  0.34941955  0.22434638  0.21263920    -0.15000
C252        C  0.36578041  0.21553099  0.23561043    -0.28800
C253        C  0.34727282  0.34070208  0.10069881    -0.03100
C254        C  0.34093679  0.34398567  0.05359787    -0.39600
H255        H  0.36979458  0.32848540  0.17861583     0.13100
H256        H  0.37041796  0.28035021  0.22766383     0.12800
H257        H  0.32800560  0.23521063  0.13078006     0.12200
H258        H  0.32705489  0.28379301  0.08207542     0.12400
H259        H  0.33565676  0.20996876  0.21623875     0.15200
H260        H  0.37978358  0.22903783  0.22939054     0.14000
H261        H  0.35060898  0.36143475  0.12343207     0.11600
H262        H  0.33948583  0.32302868  0.02991803     0.13600
C263        C  0.34372518  0.45142515  0.11244869     0.19700
C264        C  0.34406231  0.48406899  0.10413980    -0.18400
C265        C  0.34730175  0.00423345  0.14066031    -0.10600
C266        C  0.34788295  0.49432881  0.19384343     0.22000
C267        C  0.34766060  0.46166085  0.20198013    -0.20000
C268        C  0.34543199  0.44040238  0.16184847    -0.10800
C269        C  0.35293912  0.01622776  0.23268080    -0.15000
C270        C  0.34652298  0.04605502  0.23506314    -0.28800
C271        C  0.34316421  0.42922194  0.06884267    -0.03100
C272        C  0.33321805  0.40109965  0.07214767    -0.39600
H273        H  0.34456193  0.99068880  0.06291648     0.13100
H274        H  0.34847677  0.02910162  0.13168971     0.12800
H275        H  0.34948023  0.45256672  0.23943060     0.12200
H276        H  0.34580330  0.41535039  0.16925727     0.12400
H277        H  0.36136642  0.00747213  0.26329375     0.15200
H278        H  0.33701888  0.05452598  0.20643765     0.14000
H279        H  0.35122310  0.43631985  0.03394925     0.11600
H280        H  0.32415578  0.39595931  0.10662574     0.13600
C281        C  0.39182321  0.49709846  0.54820964     0.19700
C282        C  0.39473961  0.46527085  0.53568809    -0.18400
C283        C  0.40182489  0.44454742  0.57077741    -0.10600
C284        C  0.40612837  0.45516354  0.61967502     0.22000
C285        C  0.40328541  0.48702812  0.63224293    -0.20000
C286        C  0.39447364  0.00813144  0.59649518    -0.10800
C287        C  0.41482494  0.43413659  0.65697059    -0.15000
C288        C  0.41262334  0.40246168  0.65505978    -0.28800
C289        C  0.38738893  0.01945618  0.50483330    -0.03100
C290        C  0.37865470  0.04748056  0.51256296    -0.39600
H291        H  0.39187572  0.45647546  0.49813845     0.13100
H292        H  0.40454598  0.42055867  0.55858635     0.12800
H293        H  0.40236742  0.99597926  0.67124337     0.12200
H294        H  0.39119328  0.03201012  0.60819872     0.12400
H295        H  0.42351552  0.44487787  0.68643758     0.15200
H296        H  0.40293668  0.39188962  0.62755073     0.14000
H297        H  0.39090729  0.01177660  0.46614156     0.11600
H298        H  0.37448450  0.05554870  0.55057068     0.13600
C299        C  0.41599037  0.30417446  0.60756777     0.19700
C300        C  0.42754710  0.29012487  0.56822862    -0.18400
C301        C  0.42045806  0.26303846  0.54383599    -0.10600
C302        C  0.40134557  0.24981382  0.55752509     0.22000
C303        C  0.39016812  0.26297392  0.59853160    -0.20000
C304        C  0.39735907  0.29003588  0.62328349    -0.10800
C305        C  0.39260905  0.22285725  0.52894092    -0.15000
C306        C  0.39754369  0.21789876  0.47964493    -0.28800
C307        C  0.42289500  0.33519049  0.62735629    -0.03100
C308        C  0.41772570  0.34637958  0.67387265    -0.39600
H309        H  0.44200024  0.30048324  0.55573343     0.13100
H310        H  0.42993576  0.25278226  0.51395066     0.12800
H311        H  0.37549827  0.25305082  0.61010077     0.12200
H312        H  0.38789610  0.30060847  0.65292442     0.12400
H313        H  0.38125170  0.20770025  0.54814883     0.15200
H314        H  0.40808145  0.23393310  0.45954226     0.14000
H315        H  0.43239409  0.34994177  0.60198426     0.11600
H316        H  0.40920112  0.33124223  0.70060943     0.13600
C317        C  0.02477219  0.36353431  0.83163147     0.19700
C318        C  0.01408226  0.37281892  0.79045873    -0.18400
C319        C  0.99316688  0.37511528  0.79536912    -0.10600
C320        C  0.98269051  0.36773703  0.84152586     0.22000
C321        C  0.99335132  0.35724067  0.88185366    -0.20000
C322        C  0.01411995  0.35477692  0.87685973    -0.10800
C323        C  0.96086152  0.37194386  0.85036429    -0.15000
C324        C  0.94764067  0.37012063  0.81377394    -0.28800
C325        C  0.04702809  0.36448437  0.82795617    -0.03100
C326        C  0.05736928  0.37297489  0.86818494    -0.39600
H327        H  0.02198956  0.37951648  0.75522681     0.13100
H328        H  0.98542738  0.38378233  0.76372400     0.12800
H329        H  0.98557882  0.35110205  0.91754255     0.12200
H330        H  0.02183873  0.34635445  0.90875019     0.12400
H331        H  0.95529685  0.37551009  0.88924385     0.15200
H332        H  0.95318567  0.36557605  0.77518996     0.14000
H333        H  0.05487506  0.35988387  0.79172503     0.11600
H334        H  0.04930642  0.37963274  0.90325614     0.13600
C335        C  0.86538118  0.36287855  0.63207937     0.19700
C336        C  0.88378364  0.37982040  0.63399660    -0.18400
C337        C  0.89334898  0.38285255  0.67958014    -0.10600
C338        C  0.88466725  0.36899867  0.72396888     0.22000
C339        C  0.86619614  0.35255485  0.72203001    -0.20000
C340        C  0.85678940  0.34916561  0.67643745    -0.10800
C341        C  0.89439919  0.37139414  0.77287734    -0.15000
C342        C  0.91445704  0.37112715  0.77593679    -0.28800
C343        C  0.85479943  0.35831640  0.58469714    -0.03100
C344        C  0.85587165  0.37910072  0.54638664    -0.39600
H345        H  0.89100781  0.39025427  0.60031695     0.13100
H346        H  0.90739776  0.39625035  0.68009129     0.12800
H347        H  0.85919426  0.34179606  0.75577694     0.12200
H348        H  0.84264144  0.33598121  0.67588430     0.12400
H349        H  0.88474478  0.37073699  0.80715945     0.15200
H350        H  0.92358756  0.36929191  0.74081806     0.14000
H351        H  0.84475341  0.33775090  0.58248526     0.11600
H352        H  0.86554920  0.40006799  0.54895171     0.13600
C353        C  0.85332107  0.45644629  0.43510033     0.19700
C354        C  0.84317005  0.48491550  0.43542752    -0.18400
C355        C  0.84735860  0.00907292  0.39787327    -0.10600
C356        C  0.86228522  0.50139927  0.35854881     0.22000
C357        C  0.87320460  0.47371564  0.36004832    -0.20000
C358        C  0.86882301  0.45148525  0.39787177    -0.10800
C359        C  0.86652099  0.02427074  0.31579836    -0.15000
C360        C  0.85289871  0.04382953  0.29924200    -0.28800
C361        C  0.84740968  0.43214679  0.47349326    -0.03100
C362        C  0.84864857  0.40113868  0.46275343    -0.39600
H363        H  0.83110081  0.99205869  0.46485406     0.13100
H364        H  0.83923034  0.03079604  0.39871994     0.12800
H365        H  0.88492833  0.46897274  0.33128756     0.12200
H366        H  0.87761822  0.43043190  0.39778344     0.12400
H367        H  0.88107748  0.02288662  0.29545545     0.15200
H368        H  0.83805498  0.04471763  0.31803121     0.14000
H369        H  0.84101100  0.43960964  0.51013092     0.11600
H370        H  0.85410777  0.39428075  0.42493954     0.13600
C371        C  0.85418504  0.25811340  0.33166147     0.19700
C372        C  0.86878050  0.27202435  0.36160245    -0.18400
C373        C  0.86371297  0.29604616  0.39613512    -0.10600
C374        C  0.84393124  0.30676774  0.40080450     0.22000
C375        C  0.82941722  0.29304684  0.37046627    -0.20000
C376        C  0.83442903  0.26888064  0.33636353    -0.10800
C377        C  0.83829309  0.33416419  0.43299283    -0.15000
C378        C  0.84810187  0.34375990  0.47382132    -0.28800
C379        C  0.86009015  0.23342964  0.29426079    -0.03100
C380        C  0.84730139  0.21014760  0.28091821    -0.39600
H381        H  0.88415023  0.26438779  0.35804825     0.13100
H382        H  0.87545590  0.30684535  0.41764238     0.12800
H383        H  0.81419010  0.30137635  0.37266992     0.12200
H384        H  0.82295546  0.25938590  0.31268072     0.12400
H385        H  0.82571376  0.34772566  0.42182767     0.15200
H386        H  0.86012500  0.32979159  0.48697415     0.14000
H387        H  0.87553055  0.23373888  0.27880179     0.11600
H388        H  0.83235185  0.20819320  0.29924210     0.13600
C389        C  0.90251743  0.43775076  0.91516798     0.19700
C390        C  0.88336719  0.44934146  0.92698515    -0.18400
C391        C  0.87924452  0.97028113  0.96464693    -0.10600
C392        C  0.89573395  0.98484058  0.98743601     0.22000
C393        C  0.91613781  0.47376147  0.97775749    -0.20000
C394        C  0.91892474  0.45007317  0.94104602    -0.10800
C395        C  0.89305720  0.00975508  0.02674025    -0.15000
C396        C  0.87834575  0.03059491  0.02564103    -0.28800
C397        C  0.90448748  0.41048018  0.88002997    -0.03100
C398        C  0.92143109  0.40457917  0.85189967    -0.39600
H399        H  0.87044411  0.43963520  0.90847095     0.13100
H400        H  0.86402554  0.97664402  0.97571836     0.12800
H401        H  0.92893380  0.48269772  0.99757385     0.12200
H402        H  0.93376676  0.44073171  0.93431618     0.12400
H403        H  0.90410805  0.01220299  0.05528111     0.15200
H404        H  0.86825513  0.02971974  0.99480565     0.14000
H405        H  0.89192838  0.39361462  0.88018773     0.11600
H406        H  0.93376535  0.42194181  0.85193752     0.13600
C407        C  0.90198807  0.29740501  0.89412583     0.19700
C408        C  0.89972591  0.26527687  0.88190428    -0.18400
C409        C  0.89560024  0.24297944  0.91997193    -0.10600
C410        C  0.89336436  0.25257766  0.97100609     0.22000
C411        C  0.89522383  0.28477003  0.98297043    -0.20000
C412        C  0.89924540  0.30698981  0.94501716    -0.10800
C413        C  0.88957558  0.22985837  0.01295579    -0.15000
C414        C  0.88049919  0.20143677  0.00708675    -0.28800
C415        C  0.90744229  0.32054460  0.85356268    -0.03100
C416        C  0.91883698  0.34648946  0.86283363    -0.39600
H417        H  0.90169205  0.25735351  0.84302956     0.13100
H418        H  0.89470599  0.21828089  0.90931190     0.12800
H419        H  0.89342434  0.29279094  0.02183867     0.12200
H420        H  0.90011010  0.33170392  0.95572015     0.12400
H421        H  0.89359337  0.23742257  0.05045386     0.15200
H422        H  0.87534008  0.19418423  0.97054633     0.14000
H423        H  0.90290757  0.31528222  0.81565184     0.11600
H424        H  0.92461112  0.34919630  0.90017958     0.13600
C425        C  0.01638072  0.12546191  0.23093386     0.19700
C426        C  0.00205354  0.14563754  0.25315560    -0.18400
C427        C  0.98167689  0.14139390  0.24351394    -0.10600
C428        C  0.97523341  0.11640056  0.21222810     0.22000
C429        C  0.98952263  0.09550000  0.19183585    -0.20000
C430        C  0.00989491  0.10014528  0.20059549    -0.10800
C431        C  0.95377665  0.11114250  0.20064321    -0.15000
C432        C  0.94098496  0.13490129  0.19726426    -0.28800
C433        C  0.03798889  0.13035164  0.24060697    -0.03100
C434        C  0.05227230  0.12782445  0.20287167    -0.39600
H435        H  0.00668425  0.16498245  0.27732237     0.13100
H436        H  0.97099813  0.15740114  0.26113900     0.12800
H437        H  0.98494324  0.07579806  0.16832501     0.12200
H438        H  0.02058071  0.08370162  0.18411396     0.12400
H439        H  0.94871013  0.08722996  0.19163641     0.15200
H440        H  0.94628246  0.15906506  0.20321683     0.14000
H441        H  0.04194275  0.13638330  0.27874002     0.11600
H442        H  0.04736420  0.12397090  0.16472870     0.13600
C443        C  0.76207771  0.11647395  0.05377630     0.19700
C444        C  0.75563012  0.13135016  0.01070108    -0.18400
C445        C  0.73529135  0.13048700  0.00003015    -0.10600
C446        C  0.72101452  0.11441896  0.03220458     0.22000
C447        C  0.72755586  0.09896234  0.07455851    -0.20000
C448        C  0.74781632  0.09995110  0.08534072    -0.10800
C449        C  0.69940949  0.11153854  0.02166471    -0.15000
C450        C  0.68988149  0.13161567  0.99268768    -0.28800
C451        C  0.78377957  0.11784140  0.06401462    -0.03100
C452        C  0.79042386  0.11536548  0.11080869    -0.39600
H453        H  0.76635949  0.14375904  0.98532412     0.13100
H454        H  0.73095363  0.14178154  0.96604812     0.12800
H455        H  0.71692579  0.08592218  0.09940169     0.12200
H456        H  0.75224310  0.08716040  0.11781712     0.12400
H457        H  0.69070023  0.09209746  0.03927914     0.15200
H458        H  0.69799924  0.15206436  0.97659915     0.14000
H459        H  0.79454127  0.12224548  0.03238498     0.11600
H460        H  0.77979679  0.11291166  0.14312751     0.13600
C461        C  0.47948757  0.11888813  0.30941973     0.19700
C462        C  0.49371958  0.13763621  0.28139808    -0.18400
C463        C  0.51423892  0.13563533  0.28929261    -0.10600
C464        C  0.52069507  0.11537084  0.32631515     0.22000
C465        C  0.50654106  0.09632494  0.35367854    -0.20000
C466        C  0.48616375  0.09781277  0.34510954    -0.10800
C467        C  0.54170359  0.11576069  0.34106564    -0.15000
C468        C  0.55773560  0.11717444  0.30785125    -0.28800
C469        C  0.45777058  0.12447310  0.30587885    -0.03100
C470        C  0.44350908  0.10207212  0.31667027    -0.39600
H471        H  0.48889432  0.15442339  0.25432131     0.13100
H472        H  0.52488847  0.15100283  0.26842979     0.12800
H473        H  0.51124599  0.08078002  0.38274484     0.12200
H474        H  0.47563901  0.08374037  0.36855988     0.12400
H475        H  0.54406995  0.11270879  0.38097143     0.15200
H476        H  0.55524590  0.11819856  0.26769762     0.14000
H477        H  0.45341782  0.14827399  0.29737822     0.11600
H478        H  0.44772024  0.07786332  0.32238463     0.13600
C479        C  0.63102389  0.11331893  0.10210286     0.19700
C480        C  0.62401249  0.08807800  0.13263532    -0.18400
C481        C  0.61250032  0.09351995  0.17750420    -0.10600
C482        C  0.60772381  0.12450332  0.19288064     0.22000
C483        C  0.61423315  0.14963945  0.16161662    -0.20000
C484        C  0.62570011  0.14420513  0.11676438    -0.10800
C485        C  0.59508899  0.13121734  0.23966004    -0.15000
C486        C  0.59382538  0.11174615  0.27956563    -0.28800
C487        C  0.64312789  0.10675011  0.05432031    -0.03100
C488        C  0.65595187  0.12856518  0.03322200    -0.39600
H489        H  0.62745586  0.06403838  0.12173292     0.13100
H490        H  0.60702137  0.07330398  0.19925696     0.12800
H491        H  0.61037764  0.17361765  0.17187115     0.12200
H492        H  0.62992497  0.16428059  0.09327270     0.12400
H493        H  0.58652489  0.15265448  0.24139832     0.15200
H494        H  0.60316205  0.09116553  0.27826496     0.14000
H495        H  0.64156882  0.08357592  0.03696900     0.11600
H496        H  0.65829672  0.15069694  0.05341650     0.13600
C497        C  0.78477273  0.38477020  0.51720909     0.19700
C498        C  0.77164678  0.41000690  0.51717555    -0.18400
C499        C  0.75141432  0.40566444  0.53316811    -0.10600
C500        C  0.74389691  0.37579686  0.54917095     0.22000
C501        C  0.75686786  0.35033154  0.54732789    -0.20000
C502        C  0.77707843  0.35470372  0.53160778    -0.10800
C503        C  0.72255709  0.36995509  0.56638776    -0.15000
C504        C  0.71067267  0.39255435  0.58621364    -0.28800
C505        C  0.80621209  0.39015432  0.50040992    -0.03100
C506        C  0.82094537  0.37310531  0.51844448    -0.39600
H507        H  0.77710952  0.43319980  0.50514655     0.13100
H508        H  0.74171009  0.42561856  0.53212574     0.12800
H509        H  0.75136509  0.32697257  0.55836371     0.12200
H510        H  0.78651307  0.33433657  0.52995507     0.12400
H511        H  0.71663224  0.34584277  0.56422803     0.15200
H512        H  0.71653026  0.41649133  0.59084796     0.14000
H513        H  0.80969460  0.40855063  0.47295185     0.11600
H514        H  0.81674984  0.35535931  0.54657452     0.13600
C515        C  0.64823764  0.05683119  0.89818856     0.19700
C516        C  0.63212980  0.03469961  0.89956385    -0.18400
C517        C  0.63193855  0.00922939  0.86516942    -0.10600
C518        C  0.64890617  0.50319276  0.82941336     0.22000
C519        C  0.66529557  0.52470498  0.82967807    -0.20000
C520        C  0.66387681  0.05352648  0.86086257    -0.10800
C521        C  0.64893703  0.47826097  0.78928783    -0.15000
C522        C  0.63837686  0.45066034  0.79268028    -0.28800
C523        C  0.64829143  0.08413068  0.93406433    -0.03100
C524        C  0.66546538  0.09513217  0.95327482    -0.39600
H525        H  0.61974782  0.03706126  0.92739947     0.13100
H526        H  0.61919476  0.99279850  0.86686654     0.12800
H527        H  0.67792570  0.52227915  0.80255278     0.12200
H528        H  0.67618573  0.07076615  0.85764229     0.12400
H529        H  0.65850624  0.48276277  0.75543890     0.15200
H530        H  0.62954596  0.44481180  0.82711642     0.14000
H531        H  0.63428005  0.09569843  0.94381670     0.11600
H532        H  0.67900734  0.08205480  0.94439773     0.13600
C533        C  0.66287337  0.18863813  0.87646488     0.19700
C534        C  0.66576147  0.18881242  0.82368122    -0.18400
C535        C  0.66033783  0.21483017  0.79598388    -0.10600
C536        C  0.65217142  0.24148990  0.82077581     0.22000
C537        C  0.64922770  0.24125932  0.87349890    -0.20000
C538        C  0.65470502  0.21533021  0.90117057    -0.10800
C539        C  0.64631101  0.26968823  0.79291287    -0.15000
C540        C  0.65507080  0.27790491  0.74795685    -0.28800
C541        C  0.66906575  0.16080553  0.90482272    -0.03100
C542        C  0.66080999  0.15332611  0.95076747    -0.39600
H543        H  0.67203326  0.16860608  0.80377940     0.13100
H544        H  0.66228487  0.21369431  0.75522767     0.12800
H545        H  0.64301319  0.26148884  0.89345761     0.12200
H546        H  0.65289374  0.21670622  0.94192203     0.12400
H547        H  0.63494395  0.28463580  0.81067991     0.15200
H548        H  0.66711843  0.26401977  0.73098809     0.14000
H549        H  0.68056145  0.14590669  0.88750415     0.11600
H550        H  0.64846856  0.16718420  0.96641274     0.13600
C551        C  0.60548300  0.49413139  0.46125544     0.19700
C552        C  0.58564465  0.00332535  0.45432572    -0.18400
C553        C  0.58278821  0.03122486  0.42834619    -0.10600
C554        C  0.59940214  0.04941032  0.40865786     0.22000
C555        C  0.61881191  0.03912934  0.41588376    -0.20000
C556        C  0.62165019  0.01135680  0.44208928    -0.10800
C557        C  0.59723715  0.07919263  0.38066825    -0.15000
C558        C  0.58045777  0.08634100  0.35780909    -0.28800
C559        C  0.60793810  0.46540800  0.49133269    -0.03100
C560        C  0.62360052  0.46288170  0.52050623    -0.39600
H561        H  0.57336343  0.49437845  0.47676552     0.13100
H562        H  0.56755734  0.03863359  0.42496797     0.12800
H563        H  0.63184063  0.05254236  0.40092591     0.12200
H564        H  0.63684882  0.00391270  0.44631235     0.12400
H565        H  0.61027707  0.09511115  0.37610042     0.15200
H566        H  0.56768990  0.06987272  0.35994596     0.14000
H567        H  0.59590165  0.44754493  0.49310793     0.11600
H568        H  0.63474282  0.48205944  0.52172710     0.13600
C569        C  0.60720747  0.24892333  0.44610078     0.19700
C570        C  0.58786542  0.23565775  0.44113530    -0.18400
C571        C  0.58484163  0.20882962  0.41082440    -0.10600
C572        C  0.60117552  0.19453164  0.38452903     0.22000
C573        C  0.62044200  0.20829408  0.38836635    -0.20000
C574        C  0.62347641  0.23508873  0.41877877    -0.10800
C575        C  0.59858104  0.16610650  0.35140588    -0.15000
C576        C  0.58310179  0.14504731  0.35823923    -0.28800
C577        C  0.60970889  0.27726673  0.47951737    -0.03100
C578        C  0.62713745  0.28547204  0.50018852    -0.39600
H579        H  0.57501003  0.24601834  0.46102502     0.13100
H580        H  0.56963254  0.19980028  0.40746411     0.12800
H581        H  0.63324297  0.19818870  0.36786001     0.12200
H582        H  0.63854846  0.24506587  0.41998569     0.12400
H583        H  0.61017075  0.16201937  0.32195138     0.15200
H584        H  0.57263420  0.14829349  0.39054618     0.14000
H585        H  0.59644434  0.29065143  0.49001245     0.11600
H586        H  0.64019626  0.27112572  0.49289018     0.13600
C587        C  0.52322150  0.36839423  0.67317931     0.19700
C588        C  0.51050048  0.37988615  0.63752197    -0.18400
C589        C  0.48971930  0.38025297  0.64762155    -0.10600
C590        C  0.48108945  0.36923037  0.69401931     0.22000
C591        C  0.49372896  0.35753328  0.72960674    -0.20000
C592        C  0.51454787  0.35717062  0.71952979    -0.10800
C593        C  0.45897488  0.36752945  0.70512724    -0.15000
C594        C  0.44593082  0.38545286  0.68197153    -0.28800
C595        C  0.54522740  0.36821746  0.65955730    -0.03100
C596        C  0.55943971  0.36069508  0.69124145    -0.39600
H597        H  0.51664978  0.38837503  0.60131938     0.13100
H598        H  0.48051331  0.38837181  0.61830791     0.12800
H599        H  0.48744833  0.34847590  0.76531367     0.12200
H600        H  0.52354949  0.34763405  0.74806693     0.12400
H601        H  0.45308719  0.35046121  0.73288804     0.15200
H602        H  0.45163359  0.40344890  0.65564922     0.14000
H603        H  0.55001659  0.37538401  0.62138851     0.11600
H604        H  0.55546156  0.35425535  0.73003761     0.13600
Zn605      Zn  0.62401218  0.86383999  0.71313320     1.49700
Zn606      Zn  0.61314862  0.87083666  0.59593385     1.49400
Zn607      Zn  0.64920418  0.91250000  0.64234413     1.49100
Zn608      Zn  0.65397665  0.83960360  0.62170780     1.49500
O609        O  0.63487462  0.87161798  0.64352362    -1.83100
O610        O  0.59359924  0.85913980  0.71435456    -0.73700
O611        O  0.61444375  0.91103484  0.55430323    -0.73500
O612        O  0.64613607  0.93590571  0.70879957    -0.73100
O613        O  0.58629984  0.86886626  0.63512337    -0.73700
O614        O  0.62965518  0.90156957  0.75971937    -0.73300
O615        O  0.63864087  0.93949573  0.58951125    -0.73900
O616        O  0.68117976  0.85848790  0.59987485    -0.73300
O617        O  0.61443037  0.83229177  0.54826121    -0.74100
O618        O  0.67860582  0.90878465  0.62289657    -0.73500
O619        O  0.64393426  0.81290711  0.56456397    -0.73900
O620        O  0.65764101  0.80992290  0.67842039    -0.73800
O621        O  0.63596896  0.82413378  0.74094599    -0.73600
C622        C  0.58083676  0.86337586  0.68116048     0.78200
C623        C  0.62532618  0.93621077  0.55726193     0.78700
C624        C  0.63810411  0.92861662  0.75198089     0.77600
C625        C  0.68884698  0.88618813  0.60442602     0.78000
C626        C  0.62800699  0.81193763  0.54025737     0.79100
C627        C  0.64940393  0.80579477  0.72237075     0.78200
C628        C  0.57966356  0.61654270  0.32608580    -0.01400
C629        C  0.66827722  0.62462141  0.98313939    -0.01400
Zn630      Zn  0.88132983  0.66308645  0.16069412     1.49700
Zn631      Zn  0.88400162  0.58758818  0.16679080     1.49400
Zn632      Zn  0.84321424  0.62240004  0.20336474     1.49100
Zn633      Zn  0.85577839  0.61886886  0.08733349     1.49500
O634        O  0.86626045  0.62288523  0.15463339    -1.83100
O635        O  0.90973169  0.65596644  0.17939179    -0.73700
O636        O  0.87331345  0.56304784  0.22885567    -0.73500
O637        O  0.84198445  0.66265167  0.24359385    -0.73100
O638        O  0.91224704  0.60377248  0.18049652    -0.73700
O639        O  0.86868132  0.69113571  0.21517089    -0.73300
O640        O  0.84506911  0.58724864  0.25218603    -0.73900
O641        O  0.82545784  0.61767409  0.08852309    -0.73300
O642        O  0.88567127  0.55766790  0.10579376    -0.74100
O643        O  0.81683352  0.61728235  0.17053748    -0.73500
O644        O  0.86512770  0.57929039  0.05344473    -0.73900
O645        O  0.86563190  0.65471777  0.04325769    -0.73800
O646        O  0.88270377  0.68629365  0.09415831    -0.73600
C647        C  0.91993497  0.63150532  0.18526900     0.78200
C648        C  0.85767788  0.56593115  0.25839773     0.78700
C649        C  0.85305967  0.68753613  0.24468040     0.77600
C650        C  0.81211123  0.61658785  0.12473415     0.78000
C651        C  0.87698069  0.55770486  0.06404961     0.79100
C652        C  0.87596033  0.67979471  0.05102512     0.78200
C653        C  0.92473633  0.87184730  0.82502923    -0.01400
C654        C  0.84213982  0.87696877  0.50152822    -0.01400
Zn655      Zn  0.39180504  0.65654296  0.35000442     1.49700
Zn656      Zn  0.36300491  0.63438510  0.44340398     1.49400
Zn657      Zn  0.34699930  0.63258819  0.33076039     1.47900
Zn658      Zn  0.38019412  0.58391262  0.36317671     1.49500
O659        O  0.37032920  0.62677885  0.37182533    -1.83100
O660        O  0.39790131  0.68713854  0.40544820    -0.73700
O661        O  0.33320906  0.63987180  0.45304961    -0.73500
O662        O  0.35127553  0.67159893  0.28605173    -0.73100
O663        O  0.37737502  0.67322629  0.47077727    -0.73700
O664        O  0.38377382  0.68298424  0.29334440    -0.73300
O665        O  0.32133864  0.63678400  0.37616288    -0.73900
O666        O  0.36547462  0.56026408  0.30916944    -0.73300
O667        O  0.36988415  0.59725821  0.48576442    -0.74100
O668        O  0.34361056  0.59474469  0.28400771    -0.73500
O669        O  0.37814559  0.56019777  0.42900725    -0.73900
O670        O  0.40981923  0.58465969  0.34246579    -0.73800
O671        O  0.41762833  0.63537472  0.33010793    -0.73600
C672        C  0.39110256  0.69131936  0.45066129     0.78200
C673        C  0.31860428  0.63971444  0.42406957     0.78700
C674        C  0.36718027  0.68794847  0.27394137     0.77600
C675        C  0.35179460  0.56794984  0.28021950     0.78000
C676        C  0.37513128  0.56927317  0.47474374     0.79100
C677        C  0.42258478  0.60663581  0.33078493     0.78200
C678        C  0.42296600  0.88183155  0.69009457    -0.01400
C679        C  0.33340867  0.87234104  0.03299598    -0.01400
Zn680      Zn  0.14982817  0.84212879  0.90047968     1.49700
Zn681      Zn  0.12083006  0.86872439  0.81760708     1.49400
Zn682      Zn  0.11359267  0.88435609  0.93626843     1.49100
Zn683      Zn  0.15062765  0.91589854  0.87528492     1.49500
O684        O  0.13373135  0.87761113  0.88177385    -1.83100
O685        O  0.15151963  0.81094605  0.84310098    -0.73700
O686        O  0.09030987  0.86599303  0.82933926    -0.73500
O687        O  0.11363706  0.85142704  0.98928541    -0.73100
O688        O  0.13084199  0.82735171  0.78625967    -0.73700
O689        O  0.13732758  0.81877080  0.96176038    -0.73300
O690        O  0.08637990  0.88119439  0.90984306    -0.73900
O691        O  0.14209216  0.94928509  0.92611752    -0.73300
O692        O  0.12734810  0.90446783  0.76767134    -0.74100
O693        O  0.11653648  0.92633709  0.97010902    -0.73500
O694        O  0.14921322  0.93536921  0.80686267    -0.73900
O695        O  0.17911330  0.90681465  0.88815484    -0.73800
O696        O  0.17824073  0.85694020  0.91395088    -0.73600
C697        C  0.14325703  0.80751983  0.80115949     0.78200
C698        C  0.07912255  0.87283107  0.86831860     0.78700
C699        C  0.12309738  0.82614319  0.99338681     0.77600
C700        C  0.12843147  0.94986034  0.96146929     0.78000
C701        C  0.13891363  0.92896746  0.76882014     0.79100
C702        C  0.18769482  0.88311148  0.90531916     0.78200
C703        C  0.07519100  0.62879018  0.20953523    -0.01400
C704        C  0.16335124  0.62533776  0.52869308    -0.01400
C705        C  0.12802152  0.63006555  0.41567050     0.19700
C706        C  0.11962060  0.65508663  0.39064461    -0.18400
C707        C  0.10718225  0.64929663  0.35058031    -0.10600
C708        C  0.10288754  0.61817139  0.33457003     0.22000
C709        C  0.11094726  0.59313092  0.36028755    -0.20000
C710        C  0.12335483  0.59891120  0.40038751    -0.10800
C711        C  0.09265301  0.61105209  0.28718800    -0.15000
C712        C  0.08078346  0.63139807  0.26472799    -0.28800
C713        C  0.14263542  0.63758786  0.45478384    -0.03100
C714        C  0.14778254  0.61703181  0.49001381    -0.39600
H715        H  0.12312951  0.67929288  0.40127011     0.13100
H716        H  0.10188044  0.66934563  0.33080767     0.12800
H717        H  0.10819729  0.56897235  0.34813999     0.12200
H718        H  0.12990641  0.57890168  0.41750382     0.12400
H719        H  0.09645813  0.58893106  0.26865479     0.15200
H720        H  0.07644971  0.65282327  0.28477237     0.14000
H721        H  0.14941074  0.66123061  0.45495843     0.11600
H722        H  0.14058135  0.59374109  0.49143157     0.13600
C723        C  0.14636244  0.74365360  0.69524636     0.19700
C724        C  0.14185188  0.74231128  0.64409998    -0.18400
C725        C  0.14758777  0.71661891  0.61341361    -0.10600
C726        C  0.15782035  0.69143870  0.63352091     0.22000
C727        C  0.16211513  0.69262550  0.68470422    -0.20000
C728        C  0.15630691  0.71814534  0.71536943    -0.10800
C729        C  0.16479546  0.66397267  0.60250412    -0.15000
C730        C  0.15652534  0.65431545  0.55949738    -0.28800
C731        C  0.14042639  0.77182113  0.72630669    -0.03100
C732        C  0.14871764  0.77960116  0.77009586    -0.39600
H733        H  0.13415497  0.76150111  0.62755783     0.13100
H734        H  0.14437209  0.71701374  0.57389700     0.12800
H735        H  0.16988713  0.67350802  0.70126220     0.12200
H736        H  0.15949463  0.71736753  0.75483193     0.12400
H737        H  0.17635576  0.64994409  0.61768080     0.15200
H738        H  0.14356505  0.66659150  0.54751149     0.14000
H739        H  0.12934404  0.78717602  0.71186120     0.11600
H740        H  0.16038182  0.76535060  0.78417715     0.13600
C741        C  0.15163133  0.00230937  0.68616141     0.19700
C742        C  0.16845592  0.52336746  0.67887733    -0.18400
C743        C  0.16819332  0.54927879  0.64670649    -0.10600
C744        C  0.15038824  0.55703449  0.62422235     0.22000
C745        C  0.13295943  0.53834713  0.63457672    -0.20000
C746        C  0.13327593  0.51222982  0.66632264    -0.10800
C747        C  0.14922780  0.58514539  0.59165619    -0.15000
C748        C  0.16499069  0.59689070  0.56308328    -0.28800
C749        C  0.15225074  0.97670875  0.72401501    -0.03100
C750        C  0.13964969  0.95120085  0.72593703    -0.39600
H751        H  0.18256293  0.01713492  0.69498379     0.13100
H752        H  0.18176722  0.56369745  0.64087075     0.12800
H753        H  0.11900233  0.54409772  0.61823534     0.12200
H754        H  0.12017062  0.99568554  0.67035629     0.12400
H755        H  0.13469353  0.59579997  0.58923856     0.15200
H756        H  0.17927836  0.58527359  0.56335202     0.14000
H757        H  0.16341700  0.97941496  0.75223969     0.11600
H758        H  0.12910963  0.94708736  0.69663555     0.13600
C759        C  0.08871201  0.70441576  0.12898410     0.19700
C760        C  0.08003454  0.73352555  0.12117383    -0.18400
C761        C  0.09027466  0.75659827  0.09165163    -0.10600
C762        C  0.10947182  0.75093172  0.06898998     0.22000
C763        C  0.11802530  0.72162346  0.07629978    -0.20000
C764        C  0.10781402  0.69860091  0.10603542    -0.10800
C765        C  0.12007134  0.77385178  0.03395107    -0.15000
C766        C  0.11625525  0.80479745  0.03472853    -0.28800
C767        C  0.07694288  0.67981306  0.15816401    -0.03100
C768        C  0.08580681  0.65722557  0.18366764    -0.39600
H769        H  0.06518340  0.73829938  0.13753520     0.13100
H770        H  0.08270332  0.77829135  0.08530248     0.12800
H771        H  0.13253603  0.71635671  0.05833945     0.12200
H772        H  0.11465624  0.67595132  0.10951881     0.12400
H773        H  0.13062073  0.76467329  0.00510447     0.15200
H774        H  0.10613883  0.81446324  0.06400212     0.14000
H775        H  0.06070112  0.68054637  0.15829310     0.11600
H776        H  0.10203117  0.65861346  0.18591989     0.13600
C777        C  0.10039467  0.56588203  0.11784143     0.19700
C778        C  0.10827693  0.56735460  0.06773306    -0.18400
C779        C  0.11307560  0.53990383  0.04088931    -0.10600
C780        C  0.10896169  0.01002723  0.06046830     0.22000
C781        C  0.10184199  0.00842981  0.11119780    -0.20000
C782        C  0.09790138  0.53623955  0.14123030    -0.10800
C783        C  0.11283985  0.98042305  0.03197238    -0.15000
C784        C  0.12614202  0.97883094  0.99206163    -0.28800
C785        C  0.09502948  0.59590646  0.14365357    -0.03100
C786        C  0.08221392  0.59790228  0.18476774    -0.39600
H787        H  0.11032817  0.58986902  0.04879409     0.13100
H788        H  0.11833750  0.54203853  0.00171967     0.12800
H789        H  0.09994648  0.98581178  0.12985194     0.12200
H790        H  0.09244316  0.53406843  0.18021228     0.12400
H791        H  0.10450152  0.95922653  0.04448615     0.15200
H792        H  0.13547450  0.99929956  0.98103357     0.14000
H793        H  0.10115130  0.61722840  0.12567144     0.11600
H794        H  0.07535008  0.57642495  0.20072710     0.13600
C795        C  0.24057744  0.86986788  0.95118524     0.19700
C796        C  0.24773991  0.85176793  0.98999321    -0.18400
C797        C  0.26713048  0.85721669  0.00628180    -0.10600
C798        C  0.27984255  0.88070551  0.98345936     0.22000
C799        C  0.27279461  0.89845940  0.94418727    -0.20000
C800        C  0.25347231  0.89291958  0.92775419    -0.10800
C801        C  0.30041339  0.88765974  0.99982094    -0.15000
C802        C  0.31175612  0.86572345  0.01976008    -0.28800
C803        C  0.21953182  0.86449545  0.93680384    -0.03100
C804        C  0.20905479  0.88709477  0.91590577    -0.39600
H805        H  0.23813006  0.83386787  0.00860155     0.13100
H806        H  0.27187190  0.84353509  0.03747632     0.12800
H807        H  0.28236749  0.91648246  0.92576974     0.12200
H808        H  0.24883751  0.90661807  0.89648286     0.12400
H809        H  0.30687432  0.91111983  0.99264319     0.15200
H810        H  0.30542207  0.84200140  0.02513727     0.14000
H811        H  0.21205880  0.84210216  0.94671531     0.11600
H812        H  0.21593821  0.91018484  0.90842195     0.13600
C813        C  0.37090159  0.87421826  0.91273652     0.19700
C814        C  0.39110510  0.86730564  0.90123407    -0.18400
C815        C  0.39967465  0.87133872  0.85217143    -0.10600
C816        C  0.38807836  0.88207692  0.81335925     0.22000
C817        C  0.36793191  0.88914039  0.82491308    -0.20000
C818        C  0.35942621  0.88540291  0.87397957    -0.10800
C819        C  0.39579172  0.88278678  0.75966951    -0.15000
C820        C  0.41537376  0.88657498  0.74496558    -0.28800
C821        C  0.36172888  0.86686480  0.96396622    -0.03100
C822        C  0.34540286  0.88151776  0.98396102    -0.39600
H823        H  0.40018307  0.85815166  0.93010891     0.13100
H824        H  0.41507296  0.86466944  0.84435761     0.12800
H825        H  0.35858736  0.89688748  0.79552207     0.12200
H826        H  0.34362665  0.88995002  0.88068962     0.12400
H827        H  0.38494633  0.87902812  0.73086428     0.15200
H828        H  0.42620537  0.89211468  0.77314850     0.14000
H829        H  0.36857959  0.84865782  0.98514299     0.11600
H830        H  0.33994877  0.90132230  0.96358927     0.13600
C831        C  0.22135193  0.63819424  0.49615639     0.19700
C832        C  0.23811780  0.63360837  0.52466079    -0.18400
C833        C  0.25749710  0.63378140  0.50181527    -0.10600
C834        C  0.26073172  0.63911811  0.44957905     0.22000
C835        C  0.24398240  0.64390625  0.42097717    -0.20000
C836        C  0.22451008  0.64366876  0.44390743    -0.10800
C837        C  0.28118324  0.63858461  0.42359006    -0.15000
C838        C  0.29821977  0.64260364  0.44826383    -0.28800
C839        C  0.20107103  0.63632295  0.52287518    -0.03100
C840        C  0.18363274  0.63183689  0.49988212    -0.39600
H841        H  0.23620101  0.62915401  0.56483832     0.13100
H842        H  0.26972724  0.62886120  0.52531525     0.12800
H843        H  0.24597360  0.64794608  0.38069991     0.12200
H844        H  0.21215051  0.64794684  0.42047883     0.12400
H845        H  0.28222357  0.63474628  0.38296743     0.15200
H846        H  0.29748704  0.64763427  0.48844470     0.14000
H847        H  0.20074299  0.63578429  0.56369625     0.11600
H848        H  0.18404064  0.63050541  0.45900060     0.13600
C849        C  0.34951976  0.80763956  0.12644254     0.19700
C850        C  0.36205109  0.80619011  0.16703711    -0.18400
C851        C  0.36275578  0.77868297  0.19531694    -0.10600
C852        C  0.35081735  0.75189551  0.18373329     0.22000
C853        C  0.33815014  0.75334240  0.14336933    -0.20000
C854        C  0.33755007  0.78086619  0.11475742    -0.10800
C855        C  0.35061420  0.72297378  0.21503494    -0.15000
C856        C  0.36696653  0.71431249  0.23816970    -0.28800
C857        C  0.34750071  0.83849683  0.10146103    -0.03100
C858        C  0.34058923  0.84149172  0.05489078    -0.39600
H859        H  0.37103303  0.82668740  0.17761535     0.13100
H860        H  0.37214587  0.77890332  0.22732812     0.12800
H861        H  0.32856615  0.73322737  0.13427006     0.12200
H862        H  0.32711138  0.78144664  0.08499549     0.12400
H863        H  0.33685620  0.70861230  0.21895464     0.15200
H864        H  0.38100383  0.72767466  0.23168249     0.14000
H865        H  0.35113569  0.85936674  0.12357700     0.11600
H866        H  0.33878976  0.82038430  0.03172896     0.13600
C867        C  0.34421134  0.94979475  0.11103263     0.19700
C868        C  0.34522190  0.98229569  0.10122520    -0.18400
C869        C  0.34591735  0.50537875  0.14449105    -0.10600
C870        C  0.34881732  0.99394684  0.19059689     0.22000
C871        C  0.34797294  0.96143693  0.20024144    -0.20000
C872        C  0.34551804  0.93957116  0.16103197    -0.10800
C873        C  0.35198743  0.51605062  0.23666763    -0.15000
C874        C  0.34566380  0.54590702  0.23986133    -0.28800
C875        C  0.34335578  0.92689240  0.06833599    -0.03100
C876        C  0.33332696  0.89886399  0.07281890    -0.39600
H877        H  0.34307298  0.49306128  0.06630156     0.13100
H878        H  0.34662033  0.53040465  0.13657303     0.12800
H879        H  0.34943130  0.95292142  0.23821095     0.12200
H880        H  0.34539570  0.91465160  0.16967884     0.12400
H881        H  0.36055656  0.50698967  0.26678357     0.15200
H882        H  0.33603912  0.55469764  0.21176006     0.14000
H883        H  0.35122691  0.93348485  0.03294350     0.11600
H884        H  0.32448219  0.89412619  0.10777670     0.13600
C885        C  0.39296929  0.99809973  0.54588734     0.19700
C886        C  0.39818395  0.96711544  0.53282258    -0.18400
C887        C  0.40468514  0.94658350  0.56905080    -0.10600
C888        C  0.40613825  0.95653570  0.61961745     0.22000
C889        C  0.40106218  0.98755414  0.63279482    -0.20000
C890        C  0.39617253  0.50781761  0.59703883    -0.10800
C891        C  0.41420358  0.93573376  0.65822380    -0.15000
C892        C  0.41258629  0.90401811  0.65535624    -0.28800
C893        C  0.38583404  0.51855076  0.50792088    -0.03100
C894        C  0.37850048  0.54749060  0.51646277    -0.39600
H895        H  0.39752453  0.95884435  0.49409073     0.13100
H896        H  0.40919079  0.92329591  0.55679882     0.12800
H897        H  0.40681455  0.49595936  0.66926277     0.12200
H898        H  0.39477689  0.53234217  0.60788286     0.12400
H899        H  0.42194360  0.94663728  0.68921696     0.15200
H900        H  0.40369660  0.89347239  0.62611552     0.14000
H901        H  0.38791693  0.51018056  0.46910226     0.11600
H902        H  0.37562887  0.55615544  0.55476350     0.13600
C903        C  0.41709369  0.80633950  0.60612965     0.19700
C904        C  0.42849661  0.79330558  0.56553300    -0.18400
C905        C  0.42171590  0.76605317  0.54094677    -0.10600
C906        C  0.40306877  0.75159072  0.55582897     0.22000
C907        C  0.39201558  0.76394968  0.59769141    -0.20000
C908        C  0.39887486  0.79115753  0.62252500    -0.10800
C909        C  0.39460619  0.72401434  0.52813094    -0.15000
C910        C  0.39964977  0.71804489  0.47919771    -0.28800
C911        C  0.42369735  0.83728415  0.62695459    -0.03100
C912        C  0.41811506  0.84794229  0.67356588    -0.39600
H913        H  0.44261178  0.80450564  0.55236090     0.13100
H914        H  0.43112840  0.75658759  0.51024778     0.12800
H915        H  0.37768869  0.75315855  0.61011961     0.12200
H916        H  0.38944438  0.80090550  0.65298066     0.12400
H917        H  0.38322752  0.70912846  0.54781703     0.15200
H918        H  0.41026380  0.73356147  0.45833317     0.14000
H919        H  0.43316154  0.85251058  0.60225427     0.11600
H920        H  0.40964039  0.83235184  0.69968318     0.13600
C921        C  0.02454132  0.86180109  0.83044554     0.19700
C922        C  0.01390460  0.87130237  0.78927239    -0.18400
C923        C  0.99297612  0.87368278  0.79404387    -0.10600
C924        C  0.98242790  0.86622670  0.84006207     0.22000
C925        C  0.99301974  0.85532143  0.88025572    -0.20000
C926        C  0.01379376  0.85275458  0.87539245    -0.10800
C927        C  0.96062279  0.87087317  0.84903784    -0.15000
C928        C  0.94729028  0.86929385  0.81264811    -0.28800
C929        C  0.04682922  0.86287030  0.82707192    -0.03100
C930        C  0.05710977  0.87099632  0.86762643    -0.39600
H931        H  0.02186359  0.87815374  0.75421054     0.13100
H932        H  0.98527854  0.88255294  0.76244283     0.12800
H933        H  0.98519468  0.84903145  0.91579612     0.12200
H934        H  0.02144845  0.84408841  0.90723788     0.12400
H935        H  0.95514921  0.87440538  0.88799133     0.15200
H936        H  0.95272062  0.86482798  0.77394299     0.14000
H937        H  0.05474415  0.85874084  0.79080279     0.11600
H938        H  0.04898249  0.87718649  0.90280848     0.13600
C939        C  0.86368694  0.86457776  0.63387893     0.19700
C940        C  0.88233417  0.88082940  0.63558941    -0.18400
C941        C  0.89220875  0.88292973  0.68078692    -0.10600
C942        C  0.88362557  0.86876893  0.72501148     0.22000
C943        C  0.86484078  0.85321052  0.72342179    -0.20000
C944        C  0.85509350  0.85079219  0.67818623    -0.10800
C945        C  0.89372794  0.87016516  0.77344335    -0.15000
C946        C  0.91383537  0.87001169  0.77571527    -0.28800
C947        C  0.85300886  0.86047244  0.58654828    -0.03100
C948        C  0.85446816  0.88117018  0.54811703    -0.39600
H949        H  0.88955617  0.89133688  0.60196801     0.13100
H950        H  0.90644713  0.89580824  0.68107258     0.12800
H951        H  0.85786229  0.84234562  0.75711973     0.12200
H952        H  0.84074192  0.83817601  0.67781138     0.12400
H953        H  0.88426295  0.86907315  0.80806021     0.15200
H954        H  0.92281244  0.86849938  0.74029757     0.14000
H955        H  0.84279734  0.84012718  0.58419134     0.11600
H956        H  0.86428627  0.90195943  0.55092542     0.13600
C957        C  0.85292708  0.95861150  0.43664579     0.19700
C958        C  0.84284740  0.98713808  0.43625059    -0.18400
C959        C  0.84756703  0.50722182  0.39755977    -0.10600
C960        C  0.86212027  0.00279707  0.35919609     0.22000
C961        C  0.87306074  0.97521266  0.36161133    -0.20000
C962        C  0.86856412  0.95335721  0.39989303    -0.10800
C963        C  0.86672728  0.52344920  0.31581360    -0.15000
C964        C  0.85354438  0.54445587  0.30133661    -0.28800
C965        C  0.84671787  0.93440401  0.47495681    -0.03100
C966        C  0.84788794  0.90338434  0.46417236    -0.39600
H967        H  0.83150021  0.48957916  0.46436270     0.13100
H968        H  0.83941115  0.52890428  0.39926951     0.12800
H969        H  0.88482558  0.97019280  0.33310788     0.12200
H970        H  0.87733436  0.93229269  0.40042064     0.12400
H971        H  0.88096873  0.52137725  0.29419776     0.15200
H972        H  0.83897027  0.54617457  0.32125937     0.14000
H973        H  0.84015911  0.94192145  0.51139932     0.11600
H974        H  0.85351839  0.89655168  0.42649560     0.13600
C975        C  0.85407407  0.76052221  0.33206844     0.19700
C976        C  0.86846550  0.77399495  0.36309757    -0.18400
C977        C  0.86328342  0.79799863  0.39762561    -0.10600
C978        C  0.84359934  0.80917495  0.40117273     0.22000
C979        C  0.82931156  0.79592844  0.36969330    -0.20000
C980        C  0.83442696  0.77177323  0.33563358    -0.10800
C981        C  0.83783676  0.83653669  0.43338784    -0.15000
C982        C  0.84730392  0.84597458  0.47486136    -0.28800
C983        C  0.86006627  0.73567112  0.29493143    -0.03100
C984        C  0.84723625  0.71253095  0.28112445    -0.39600
H985        H  0.88375971  0.76598406  0.36047247     0.13100
H986        H  0.87487064  0.80839957  0.42006587     0.12800
H987        H  0.81417253  0.80459850  0.37101113     0.12200
H988        H  0.82312587  0.76261680  0.31114890     0.12400
H989        H  0.82539718  0.85022381  0.42170639     0.15200
H990        H  0.85919359  0.83194625  0.48855486     0.14000
H991        H  0.87561550  0.73560509  0.28033608     0.11600
H992        H  0.83215172  0.71092773  0.29872952     0.13600
C993        C  0.90164350  0.93688855  0.91385290     0.19700
C994        C  0.88220830  0.94644268  0.92842806    -0.18400
C995        C  0.88061498  0.47319742  0.96322479    -0.10600
C996        C  0.89701639  0.48579776  0.98885616     0.22000
C997        C  0.91514582  0.97503142  0.97337399    -0.20000
C998        C  0.91813092  0.95140802  0.93673885    -0.10800
C999        C  0.89440478  0.51080451  0.02820181    -0.15000
C1000       C  0.88013964  0.53239120  0.02615334    -0.28800
C1001       C  0.90398728  0.90939148  0.87926456    -0.03100
C1002       C  0.92096535  0.90362455  0.85108600    -0.39600
H1003       H  0.86924919  0.93509677  0.91220615     0.13100
H1004       H  0.86553179  0.48105906  0.97202948     0.12800
H1005       H  0.92803925  0.98565190  0.99088751     0.12200
H1006       H  0.93327476  0.94382589  0.92797881     0.12400
H1007       H  0.90490653  0.51229053  0.05811820     0.15200
H1008       H  0.87062640  0.53237558  0.99420739     0.14000
H1009       H  0.89164485  0.89209081  0.88007670     0.11600
H1010       H  0.93317732  0.92121431  0.85031681     0.13600
C1011       C  0.90203848  0.79651512  0.89425104     0.19700
C1012       C  0.89965700  0.76436028  0.88234679    -0.18400
C1013       C  0.89545387  0.74225731  0.92064573    -0.10600
C1014       C  0.89329640  0.75210194  0.97155926     0.22000
C1015       C  0.89530900  0.78430082  0.98322533    -0.20000
C1016       C  0.89937559  0.80632737  0.94505346    -0.10800
C1017       C  0.88945848  0.72962776  0.01371930    -0.15000
C1018       C  0.88006249  0.70143956  0.00831550    -0.28800
C1019       C  0.90744419  0.81946551  0.85342483    -0.03100
C1020       C  0.91869969  0.84558475  0.86244059    -0.39600
H1021       H  0.90155504  0.75627326  0.84354420     0.13100
H1022       H  0.89443028  0.71751371  0.91028868     0.12800
H1023       H  0.89357057  0.79248016  0.02202054     0.12200
H1024       H  0.90030589  0.83107267  0.95553583     0.12400
H1025       H  0.89372727  0.73720743  0.05100197     0.15200
H1026       H  0.87466290  0.69419903  0.97200661     0.14000
H1027       H  0.90292343  0.81400038  0.81557166     0.11600
H1028       H  0.92449739  0.84852749  0.89972205     0.13600
C1029       C  0.01650801  0.62522727  0.22983441     0.19700
C1030       C  0.00197800  0.64335817  0.25592659    -0.18400
C1031       C  0.98165804  0.63965233  0.24556160    -0.10600
C1032       C  0.97549181  0.61720600  0.20957543     0.22000
C1033       C  0.98996574  0.59827948  0.18497833    -0.20000
C1034       C  0.01027484  0.60239521  0.19462264    -0.10800
C1035       C  0.95408268  0.61237121  0.19777629    -0.15000
C1036       C  0.94109509  0.63606377  0.19843197    -0.28800
C1037       C  0.03803830  0.62961885  0.24060727    -0.03100
C1038       C  0.05255190  0.62822347  0.20326645    -0.39600
H1039       H  0.00640011  0.66069570  0.28382824     0.13100
H1040       H  0.97078773  0.65397691  0.26630393     0.12800
H1041       H  0.98556491  0.58050566  0.15772926     0.12200
H1042       H  0.02107578  0.58736776  0.17504531     0.12400
H1043       H  0.94918924  0.58899750  0.18535421     0.15200
H1044       H  0.94625262  0.65992778  0.20735332     0.14000
H1045       H  0.04176351  0.63436543  0.27933883     0.11600
H1046       H  0.04797187  0.62543187  0.16464675     0.13600
C1047       C  0.76228959  0.61533479  0.05696320     0.19700
C1048       C  0.75599745  0.62966671  0.01323861    -0.18400
C1049       C  0.73571995  0.62859581  0.00203950    -0.10600
C1050       C  0.72133703  0.61288486  0.03434552     0.22000
C1051       C  0.72771755  0.59791197  0.07733879    -0.20000
C1052       C  0.74792692  0.59912575  0.08867444    -0.10800
C1053       C  0.69978630  0.60994766  0.02331269    -0.15000
C1054       C  0.69035812  0.62997395  0.99397896    -0.28800
C1055       C  0.78395958  0.61689483  0.06753338    -0.03100
C1056       C  0.79060009  0.61450170  0.11435698    -0.39600
H1057       H  0.76680637  0.64180562  0.98773032     0.13100
H1058       H  0.73150372  0.63946303  0.96758135     0.12800
H1059       H  0.71699782  0.58512231  0.10228854     0.12200
H1060       H  0.75222979  0.58675461  0.12168096     0.12400
H1061       H  0.69102950  0.59053459  0.04087895     0.15200
H1062       H  0.69852607  0.65039585  0.97795706     0.14000
H1063       H  0.79473617  0.62141088  0.03598626     0.11600
H1064       H  0.77999673  0.61195607  0.14669102     0.13600
C1065       C  0.47974128  0.61511645  0.31042887     0.19700
C1066       C  0.49390205  0.63012059  0.27683762    -0.18400
C1067       C  0.51446378  0.62935309  0.28500240    -0.10600
C1068       C  0.52105638  0.61413001  0.32768576     0.22000
C1069       C  0.50691516  0.59874535  0.36068318    -0.20000
C1070       C  0.48649768  0.59899240  0.35204102    -0.10800
C1071       C  0.54220806  0.61594203  0.34175680    -0.15000
C1072       C  0.55822034  0.61695517  0.30837628    -0.28800
C1073       C  0.45801397  0.61997427  0.30571905    -0.03100
C1074       C  0.44383752  0.59856475  0.32168781    -0.39600
H1075       H  0.48899185  0.64311786  0.24497799     0.13100
H1076       H  0.52500601  0.64192871  0.25944299     0.12800
H1077       H  0.51166177  0.58709114  0.39405169     0.12200
H1078       H  0.47598115  0.58802305  0.37954080     0.12400
H1079       H  0.54477044  0.61441201  0.38182067     0.15200
H1080       H  0.55575517  0.61659309  0.26816820     0.14000
H1081       H  0.45358938  0.64266347  0.29191731     0.11600
H1082       H  0.44814967  0.57516627  0.33252582     0.13600
C1083       C  0.63146218  0.61191543  0.10263991     0.19700
C1084       C  0.62513595  0.58709608  0.13479272    -0.18400
C1085       C  0.61357399  0.59295842  0.17944428    -0.10600
C1086       C  0.60806215  0.62395065  0.19295616     0.22000
C1087       C  0.61390104  0.64860629  0.16005159    -0.20000
C1088       C  0.62542116  0.64274339  0.11543560    -0.10800
C1089       C  0.59534834  0.63109332  0.23946391    -0.15000
C1090       C  0.59444656  0.61244406  0.28035328    -0.28800
C1091       C  0.64366418  0.60502088  0.05516098    -0.03100
C1092       C  0.65634894  0.62691284  0.03378890    -0.39600
H1093       H  0.62916603  0.56307979  0.12535029     0.13100
H1094       H  0.60863617  0.57300310  0.20246997     0.12800
H1095       H  0.60948271  0.67252797  0.16883465     0.12200
H1096       H  0.62915477  0.66239622  0.09061898     0.12400
H1097       H  0.58638265  0.65209471  0.24010649     0.15200
H1098       H  0.60414630  0.59232331  0.28002355     0.14000
H1099       H  0.64232563  0.58165684  0.03836033     0.11600
H1100       H  0.65847764  0.64920900  0.05371066     0.13600
C1101       C  0.78377651  0.88688495  0.51613912     0.19700
C1102       C  0.77079964  0.91232424  0.51936569    -0.18400
C1103       C  0.75057234  0.90759641  0.53510918    -0.10600
C1104       C  0.74292053  0.87714602  0.54753392     0.22000
C1105       C  0.75573897  0.85155884  0.54215137    -0.20000
C1106       C  0.77595035  0.85631670  0.52673361    -0.10800
C1107       C  0.72162897  0.87093073  0.56491774    -0.15000
C1108       C  0.70998466  0.89288145  0.58758193    -0.28800
C1109       C  0.80526477  0.89260213  0.50036550    -0.03100
C1110       C  0.81981043  0.87514506  0.51832036    -0.39600
H1111       H  0.77639288  0.93595997  0.51028534     0.13100
H1112       H  0.74099734  0.92777039  0.53678060     0.12800
H1113       H  0.75013589  0.82780906  0.55036356     0.12200
H1114       H  0.78533750  0.83594873  0.52251237     0.12400
H1115       H  0.71554744  0.84704310  0.56045672     0.15200
H1116       H  0.71598661  0.91652904  0.59430597     0.14000
H1117       H  0.80892455  0.91157473  0.47405049     0.11600
H1118       H  0.81533542  0.85693986  0.54549304     0.13600
C1119       C  0.64928566  0.55425742  0.89948139     0.19700
C1120       C  0.63270184  0.53304931  0.89893804    -0.18400
C1121       C  0.63255705  0.50754879  0.86456072    -0.10600
C1122       C  0.64772286  0.00586773  0.82807557     0.22000
C1123       C  0.66353592  0.02849216  0.82615899    -0.20000
C1124       C  0.66554923  0.54980205  0.86425966    -0.10800
C1125       C  0.64774292  0.98056901  0.78855762    -0.15000
C1126       C  0.63810742  0.95224867  0.79381021    -0.28800
C1127       C  0.64914143  0.58191523  0.93480478    -0.03100
C1128       C  0.66618207  0.59326384  0.95431244    -0.39600
H1129       H  0.61985253  0.53625550  0.92508468     0.13100
H1130       H  0.61940616  0.49197443  0.86456370     0.12800
H1131       H  0.67568893  0.02685720  0.79748414     0.12200
H1132       H  0.67827959  0.56627964  0.86226601     0.12400
H1133       H  0.65657821  0.98538394  0.75364857     0.15200
H1134       H  0.62999359  0.94622095  0.82917708     0.14000
H1135       H  0.63507265  0.59347079  0.94391328     0.11600
H1136       H  0.67978512  0.58020411  0.94629623     0.13600
C1137       C  0.66375781  0.68783251  0.87800103     0.19700
C1138       C  0.66735531  0.68894395  0.82541399    -0.18400
C1139       C  0.66204068  0.71527171  0.79820038    -0.10600
C1140       C  0.65324972  0.74136724  0.82326937     0.22000
C1141       C  0.64966611  0.74023822  0.87581853    -0.20000
C1142       C  0.65503110  0.71400311  0.90300545    -0.10800
C1143       C  0.64721468  0.76976682  0.79591400    -0.15000
C1144       C  0.65577991  0.77846397  0.75092544    -0.28800
C1145       C  0.66984847  0.65964464  0.90588631    -0.03100
C1146       C  0.66132315  0.65156109  0.95132243    -0.39600
H1147       H  0.67408923  0.66920828  0.80524183     0.13100
H1148       H  0.66453047  0.71473671  0.75753745     0.12800
H1149       H  0.64296886  0.75997880  0.89606353     0.12200
H1150       H  0.65266581  0.71475702  0.94368755     0.12400
H1151       H  0.63569296  0.78431952  0.81392305     0.15200
H1152       H  0.66791427  0.76495350  0.73355245     0.14000
H1153       H  0.68159488  0.64514017  0.88878631     0.11600
H1154       H  0.64877073  0.66507214  0.96664564     0.13600
C1155       C  0.60506151  0.99342210  0.46220825     0.19700
C1156       C  0.58629930  0.50626497  0.45821847    -0.18400
C1157       C  0.58374397  0.53452550  0.43301209    -0.10600
C1158       C  0.60034910  0.55076274  0.40918118     0.22000
C1159       C  0.61950561  0.53830624  0.41165557    -0.20000
C1160       C  0.62206971  0.51018914  0.43724722    -0.10800
C1161       C  0.59825313  0.58060242  0.38140294    -0.15000
C1162       C  0.58128935  0.58766003  0.35929737    -0.28800
C1163       C  0.60761173  0.96487844  0.49279465    -0.03100
C1164       C  0.62296889  0.96281392  0.52311641    -0.39600
H1165       H  0.57266593  0.98993999  0.46962298     0.13100
H1166       H  0.56880659  0.54381403  0.43330807     0.12800
H1167       H  0.63249210  0.55024383  0.39342261     0.12200
H1168       H  0.63702090  0.50098597  0.43813967     0.12400
H1169       H  0.61140839  0.59616769  0.37566403     0.15200
H1170       H  0.56855418  0.57112663  0.36252556     0.14000
H1171       H  0.59589690  0.94651248  0.49351417     0.11600
H1172       H  0.63384897  0.98227024  0.52527245     0.13600
C1173       C  0.60607316  0.75072176  0.44622534     0.19700
C1174       C  0.58683802  0.73713684  0.44083195    -0.18400
C1175       C  0.58406654  0.71052275  0.40982903    -0.10600
C1176       C  0.60054369  0.69680949  0.38319806     0.22000
C1177       C  0.61965597  0.71112615  0.38703829    -0.20000
C1178       C  0.62244082  0.73766773  0.41819045    -0.10800
C1179       C  0.59827127  0.66821471  0.35020486    -0.15000
C1180       C  0.58327643  0.64639899  0.35800169    -0.28800
C1181       C  0.60843449  0.77851528  0.48092188    -0.03100
C1182       C  0.62575288  0.78605982  0.50267881    -0.39600
H1183       H  0.57389586  0.74696673  0.46113118     0.13100
H1184       H  0.56895242  0.70108595  0.40638884     0.12800
H1185       H  0.63254993  0.70153701  0.36620545     0.12200
H1186       H  0.63741217  0.74802399  0.41961061     0.12400
H1187       H  0.60975683  0.66456381  0.32032222     0.15200
H1188       H  0.57293559  0.64943712  0.39061510     0.14000
H1189       H  0.59518991  0.79197698  0.49132278     0.11600
H1190       H  0.63872283  0.77151771  0.49529540     0.13600
C1191       C  0.52302644  0.87118034  0.67910448     0.19700
C1192       C  0.51044029  0.88204607  0.64262752    -0.18400
C1193       C  0.48963505  0.88247561  0.65212224    -0.10600
C1194       C  0.48082205  0.87214854  0.69871699     0.22000
C1195       C  0.49333044  0.86128774  0.73531509    -0.20000
C1196       C  0.51419841  0.86090622  0.72586172    -0.10800
C1197       C  0.45865070  0.87007986  0.70874274    -0.15000
C1198       C  0.44569038  0.88767239  0.68463454    -0.28800
C1199       C  0.54504277  0.87057411  0.66570950    -0.03100
C1200       C  0.55920058  0.86235858  0.69711785    -0.39600
H1201       H  0.51670985  0.88987031  0.60614091     0.13100
H1202       H  0.48053708  0.88996516  0.62215104     0.12800
H1203       H  0.48690463  0.85283895  0.77127219     0.12200
H1204       H  0.52312026  0.85209457  0.75516214     0.12400
H1205       H  0.45266737  0.85288369  0.73619003     0.15200
H1206       H  0.45151406  0.90584237  0.65874721     0.14000
H1207       H  0.54989538  0.87776691  0.62758715     0.11600
H1208       H  0.55520243  0.85570686  0.73582737     0.13600
loop_ 
_geom_bond_atom_site_label_1 
_geom_bond_atom_site_label_2 
_geom_bond_distance 
_geom_bond_site_symmetry_2 
_ccdc_geom_bond_type 
Zn1           O5   1.968       .  S
Zn1           O6   2.025       .  S
Zn1          O10   2.044       .  S
Zn1          O17   2.036       .  S
Zn2           O5   1.972       .  S
Zn2           O7   2.036       .  S
Zn2           O9   2.022       .  S
Zn2          O13   2.054       .  S
Zn3           O5   1.955       .  S
Zn3           O8   2.021       .  S
Zn3          O11   1.992       .  S
Zn3          O14   2.015       .  S
Zn4           O5   1.950       .  S
Zn4          O12   2.014       .  S
Zn4          O15   2.008       .  S
Zn4          O16   1.995       .  S
O6           C18   1.274       .  A
O7           C19   1.277       .  A
O8           C20   1.274       .  A
O9           C18   1.275       .  A
O10          C20   1.275       .  A
O11          C19   1.271       .  A
O12          C21   1.273       .  A
O13          C22   1.277       .  A
O14          C21   1.271       .  A
O15          C22   1.271       .  A
O16          C23   1.271       .  A
O17          C23   1.277       .  A
C18         C596   1.479       .  S
C19         C560   1.470       .  S
C20         C522   1.486       .  S
C21         C504   1.476       .  S
C22         C578   1.482       .  S
C23         C540   1.473       .  S
C24         C468   1.529       .  S
C24         C486   1.531       .  S
C24         C558   1.525       .  S
C24         C576   1.534       .  S
C25         C450   1.526       .  S
C25         C488   1.526   1_556  S
C25         C524   1.532       .  S
C25         C542   1.522       .  S
Zn26         O30   1.960       .  S
Zn26         O31   2.017       .  S
Zn26         O35   2.021       .  S
Zn26         O42   2.028       .  S
Zn27         O30   1.974       .  S
Zn27         O32   2.038       .  S
Zn27         O34   2.045       .  S
Zn27         O38   2.043       .  S
Zn28         O30   1.952       .  S
Zn28         O33   1.997       .  S
Zn28         O36   1.991       .  S
Zn28         O39   2.008       .  S
Zn29         O30   1.956       .  S
Zn29         O37   2.022       .  S
Zn29         O40   1.993       .  S
Zn29         O41   2.003       .  S
O31          C43   1.273       .  A
O32          C44   1.277       .  A
O33          C45   1.270       .  A
O34          C43   1.277       .  A
O35          C45   1.274       .  A
O36          C44   1.270       .  A
O37          C46   1.272       .  A
O38          C47   1.278       .  A
O39          C46   1.270       .  A
O40          C47   1.271       .  A
O41          C48   1.271       .  A
O42          C48   1.276       .  A
C43         C432   1.482       .  S
C44         C360   1.473       .  S
C45         C380   1.470       .  S
C46         C452   1.475       .  S
C47         C396   1.472       .  S
C48         C414   1.475       .  S
C49         C324   1.527       .  S
C49         C342   1.531       .  S
C49         C398   1.528       .  S
C49         C416   1.529       .  S
C50         C344   1.527       .  S
C50         C362   1.529       .  S
C50         C378   1.523       .  S
C50         C506   1.531       .  S
Zn51         O55   1.949       .  S
Zn51         O56   2.000       .  S
Zn51         O60   1.990       .  S
Zn51         O67   2.008       .  S
Zn52         O55   1.958       .  S
Zn52         O57   2.007       .  S
Zn52         O59   2.027       .  S
Zn52         O63   2.021       .  S
Zn53         O55   1.976       .  S
Zn53         O58   2.051       .  S
Zn53         O61   2.055       .  S
Zn53         O64   2.036       .  S
Zn54         O55   1.961       .  S
Zn54         O62   2.020       .  S
Zn54         O65   2.028       .  S
Zn54         O66   2.018       .  S
O56          C68   1.270       .  A
O57          C69   1.273       .  A
O58          C70   1.277       .  A
O59          C68   1.274       .  A
O60          C70   1.270       .  A
O61          C69   1.278       .  A
O62          C71   1.276       .  A
O63          C72   1.273       .  A
O64          C71   1.276       .  A
O65          C72   1.275       .  A
O66          C73   1.272       .  A
O67          C73   1.272       .  A
C68         C306   1.473       .  S
C69         C234   1.479       .  S
C70         C252   1.474       .  S
C71         C270   1.480       .  S
C72         C290   1.481       .  S
C73         C470   1.474       .  S
C74         C216   1.526       .  S
C74         C288   1.528       .  S
C74         C308   1.528       .  S
C74         C594   1.527       .  S
C75         C198   1.523       .  S
C75         C218   1.534   1_554  S
C75         C254   1.536       .  S
C75         C272   1.532       .  S
Zn76         O80   1.956       .  S
Zn76         O81   2.010       .  S
Zn76         O85   2.044       .  S
Zn76         O92   2.036       .  S
Zn77         O80   1.975       .  S
Zn77         O82   2.039       .  S
Zn77         O84   2.048       .  S
Zn77         O88   2.039       .  S
Zn78         O80   1.941       .  S
Zn78         O83   1.989       .  S
Zn78         O86   1.979       .  S
Zn78         O89   1.998       .  S
Zn79         O80   1.948       .  S
Zn79         O87   2.013       .  S
Zn79         O90   2.000       .  S
Zn79         O91   1.993       .  S
O81          C93   1.273       .  A
O82          C94   1.276       .  A
O83          C95   1.268       .  A
O84          C93   1.278       .  A
O85          C95   1.276       .  A
O86          C94   1.269       .  A
O87          C96   1.270       .  A
O88          C97   1.275       .  A
O89          C96   1.270       .  A
O90          C97   1.273       .  A
O91          C98   1.271       .  A
O92          C98   1.277       .  A
C93         C128   1.479       .  S
C94         C326   1.467       .  S
C95         C162   1.474   1_556  S
C96         C180   1.471       .  S
C97         C146   1.479       .  S
C98         C200   1.473       .  S
C99         C108   1.533       .  S
C99         C164   1.529       .  S
C99         C182   1.534       .  S
C99         C434   1.530       .  S
C100        C110   1.532       .  S
C100        C126   1.535       .  S
C100        C144   1.532       .  S
C100        C236   1.537       .  S
C101        C109   1.489       .  S
C101        C102   1.404       .  A
C101        C106   1.408       .  A
C102        C103   1.399       .  A
C102        H111   1.083       .  S
C103        C104   1.408       .  A
C103        H112   1.081       .  S
C104        C107   1.488       .  S
C104        C105   1.404       .  A
C105        C106   1.399       .  A
C105        H113   1.083       .  S
C106        H114   1.081       .  S
C107        H115   1.084       .  S
C107        C108   1.353       .  D
C108        H116   1.085       .  S
C109        H117   1.087       .  S
C109        C110   1.350       .  D
C110        H118   1.085       .  S
C119        C127   1.493       .  S
C119        C120   1.404       .  A
C119        C124   1.408       .  A
C120        C121   1.402       .  A
C120        H129   1.083       .  S
C121        C122   1.410       .  A
C121        H130   1.080       .  S
C122        C125   1.493       .  S
C122        C123   1.403       .  A
C123        C124   1.398       .  A
C123        H131   1.084       .  S
C124        H132   1.081       .  S
C125        H133   1.085       .  S
C125        C126   1.349       .  D
C126        H134   1.085       .  S
C127        H135   1.087       .  S
C127        C128   1.347       .  D
C128        H136   1.084       .  S
C137        C145   1.485       .  S
C137        C742   1.404       .  A
C137        C746   1.407       .  A
C138        C139   1.400       .  A
C138        C741   1.404       .  A
C138        H751   1.084       .  S
C139        C140   1.407       .  A
C139        H148   1.082       .  S
C140        C143   1.489       .  S
C140        C141   1.404       .  A
C141        C142   1.400       .  A
C141        H149   1.084       .  S
C142        C741   1.407       .  A
C142        H754   1.082   1_545  S
C143        H151   1.087       .  S
C143        C144   1.349       .  D
C144        H152   1.086       .  S
C145        H153   1.087       .  S
C145        C146   1.348       .  D
C146        H154   1.085       .  S
H147        C742   1.084       .  S
H150        C746   1.082       .  S
C155        C163   1.486       .  S
C155        C156   1.401       .  A
C155        C160   1.409       .  A
C156        C157   1.398       .  A
C156        H165   1.083       .  S
C157        C158   1.410       .  A
C157        H166   1.081       .  S
C158        C161   1.489       .  S
C158        C159   1.402       .  A
C159        C160   1.399       .  A
C159        H167   1.083       .  S
C160        H168   1.082       .  S
C161        H169   1.087       .  S
C161        C162   1.343       .  D
C162        H170   1.085       .  S
C163        H171   1.085       .  S
C163        C164   1.347       .  D
C164        H172   1.087       .  S
C173        C181   1.482       .  S
C173        C174   1.403       .  A
C173        C178   1.408       .  A
C174        C175   1.394       .  A
C174        H183   1.084       .  S
C175        C780   1.405       .  A
C175        H184   1.081   1_554  S
C176        C179   1.481       .  S
C176        C177   1.403       .  A
C176        C779   1.406       .  A
C177        C782   1.398       .  A
C177        H185   1.084       .  S
C178        C781   1.398       .  A
C178        H186   1.080       .  S
C179        H187   1.088       .  S
C179        C180   1.345   1_554  D
C180        H188   1.086       .  S
C181        H189   1.084       .  S
C181        C182   1.352       .  D
C182        H190   1.086       .  S
C191        C199   1.486       .  S
C191        C192   1.402       .  A
C191        C196   1.409       .  A
C192        C193   1.397   1_556  A
C192        H201   1.083   1_556  S
C193        C194   1.408   1_554  A
C193        H202   1.081       .  S
C194        C197   1.483       .  S
C194        C195   1.401       .  A
C195        C196   1.397       .  A
C195        H203   1.083       .  S
C196        H204   1.081       .  S
C197        H205   1.086       .  S
C197        C198   1.347   1_556  D
C198        H206   1.086       .  S
C199        H207   1.087       .  S
C199        C200   1.343       .  D
C200        H208   1.084       .  S
C209        C217   1.489       .  S
C209        C210   1.404       .  A
C209        C214   1.408       .  A
C210        C211   1.402       .  A
C210        H219   1.084       .  S
C211        C212   1.409       .  A
C211        H220   1.081       .  S
C212        C215   1.486       .  S
C212        C213   1.402       .  A
C213        C214   1.396       .  A
C213        H221   1.084       .  S
C214        H222   1.082       .  S
C215        H223   1.088       .  S
C215        C216   1.347       .  D
C216        H224   1.086       .  S
C217        H225   1.085       .  S
C217        C218   1.349       .  D
C218        H226   1.086       .  S
C227        C235   1.491       .  S
C227        C228   1.402       .  A
C227        C232   1.410       .  A
C228        C229   1.396       .  A
C228        H237   1.084       .  S
C229        C230   1.409       .  A
C229        H238   1.081       .  S
C230        C233   1.495       .  S
C230        C231   1.405       .  A
C231        C232   1.404       .  A
C231        H239   1.083       .  S
C232        H240   1.081       .  S
C233        H241   1.086       .  S
C233        C234   1.347       .  D
C234        H242   1.084       .  S
C235        H243   1.085       .  S
C235        C236   1.349       .  D
C236        H244   1.087       .  S
C245        C253   1.485       .  S
C245        C246   1.401       .  A
C245        C250   1.410       .  A
C246        C247   1.396       .  A
C246        H255   1.084       .  S
C247        C248   1.408       .  A
C247        H256   1.082       .  S
C248        C251   1.487       .  S
C248        C249   1.402       .  A
C249        C250   1.401       .  A
C249        H257   1.083       .  S
C250        H258   1.082       .  S
C251        H259   1.087       .  S
C251        C252   1.343       .  D
C252        H260   1.086       .  S
C253        H261   1.085       .  S
C253        C254   1.350       .  D
C254        H262   1.087       .  S
C263        C271   1.484       .  S
C263        C264   1.402       .  A
C263        C268   1.406       .  A
C264        C869   1.401       .  A
C264        H877   1.083       .  S
C265        C868   1.401   1_545  A
C265        C870   1.408   1_545  A
C265        H274   1.082       .  S
C266        C873   1.486       .  S
C266        C267   1.403       .  A
C266        C869   1.408       .  A
C267        C268   1.398       .  A
C267        H275   1.083       .  S
C268        H276   1.083       .  S
C269        C870   1.486   1_545  S
C269        H277   1.087       .  S
C269        C270   1.346       .  D
C270        H278   1.086       .  S
C271        H279   1.084       .  S
C271        C272   1.348       .  D
C272        H280   1.088       .  S
H273        C868   1.083       .  S
C281        C893   1.488       .  S
C281        C282   1.402       .  A
C281        C890   1.409       .  A
C282        C283   1.396       .  A
C282        H291   1.084       .  S
C283        C284   1.409       .  A
C283        H292   1.081       .  S
C284        C287   1.490       .  S
C284        C285   1.403       .  A
C285        C890   1.401       .  A
C285        H897   1.083       .  S
C286        C885   1.411   1_545  A
C286        C889   1.402   1_545  A
C286        H294   1.080       .  S
C287        H295   1.086       .  S
C287        C288   1.347       .  D
C288        H296   1.085       .  S
C289        C885   1.492   1_545  S
C289        H297   1.088       .  S
C289        C290   1.347       .  D
C290        H298   1.085       .  S
H293        C889   1.083       .  S
C299        C307   1.480       .  S
C299        C300   1.400       .  A
C299        C304   1.407       .  A
C300        C301   1.395       .  A
C300        H309   1.084       .  S
C301        C302   1.408       .  A
C301        H310   1.081       .  S
C302        C305   1.486       .  S
C302        C303   1.404       .  A
C303        C304   1.401       .  A
C303        H311   1.083       .  S
C304        H312   1.082       .  S
C305        H313   1.087       .  S
C305        C306   1.345       .  D
C306        H314   1.085       .  S
C307        H315   1.087       .  S
C307        C308   1.347       .  D
C308        H316   1.086       .  S
C317        C325   1.482       .  S
C317        C318   1.402       .  A
C317        C322   1.407       .  A
C318        C319   1.400   1_455  A
C318        H327   1.083       .  S
C319        C320   1.408       .  A
C319        H328   1.082       .  S
C320        C323   1.478       .  S
C320        C321   1.400       .  A
C321        C322   1.391   1_655  A
C321        H329   1.084       .  S
C322        H330   1.083       .  S
C323        H331   1.086       .  S
C323        C324   1.346       .  D
C324        H332   1.085       .  S
C325        H333   1.086       .  S
C325        C326   1.342       .  D
C326        H334   1.087       .  S
C335        C343   1.482       .  S
C335        C336   1.407       .  A
C335        C340   1.403       .  A
C336        C337   1.400       .  A
C336        H345   1.083       .  S
C337        C338   1.408       .  A
C337        H346   1.082       .  S
C338        C341   1.483       .  S
C338        C339   1.400       .  A
C339        C340   1.396       .  A
C339        H347   1.084       .  S
C340        H348   1.083       .  S
C341        H349   1.084       .  S
C341        C342   1.345       .  D
C342        H350   1.087       .  S
C343        H351   1.086       .  S
C343        C344   1.349       .  D
C344        H352   1.086       .  S
C353        C361   1.485       .  S
C353        C354   1.401       .  A
C353        C358   1.408       .  A
C354        C959   1.399       .  A
C354        H967   1.083       .  S
C355        C958   1.400   1_545  A
C355        C960   1.410       .  A
C355        H364   1.082       .  S
C356        C963   1.487       .  S
C356        C357   1.401       .  A
C356        C959   1.411       .  A
C357        C358   1.396       .  A
C357        H365   1.083       .  S
C358        H366   1.082       .  S
C359        C960   1.485       .  S
C359        H367   1.087       .  S
C359        C360   1.342       .  D
C360        H368   1.085       .  S
C361        H369   1.087       .  S
C361        C362   1.346       .  D
C362        H370   1.087       .  S
H363        C958   1.083       .  S
C371        C379   1.480       .  S
C371        C372   1.402       .  A
C371        C376   1.406       .  A
C372        C373   1.398       .  A
C372        H381   1.083       .  S
C373        C374   1.407       .  A
C373        H382   1.082       .  S
C374        C377   1.479       .  S
C374        C375   1.402       .  A
C375        C376   1.395       .  A
C375        H383   1.084       .  S
C376        H384   1.082       .  S
C377        H385   1.087       .  S
C377        C378   1.348       .  D
C378        H386   1.086       .  S
C379        H387   1.087       .  S
C379        C380   1.342       .  D
C380        H388   1.086       .  S
C389        C397   1.481       .  S
C389        C390   1.400       .  A
C389        C394   1.408       .  A
C390        C995   1.396       .  A
C390        H399   1.084       .  S
C391        C392   1.407       .  A
C391        C994   1.397       .  A
C391        H400   1.082       .  S
C392        C395   1.483   1_566  S
C392        C997   1.401       .  A
C393        C394   1.400       .  A
C393        C996   1.403       .  A
C393        H401   1.083       .  S
C394        H402   1.082       .  S
C395        H403   1.087       .  S
C395        C396   1.341       .  D
C396        H404   1.087   1_554  S
C397        H405   1.085       .  S
C397        C398   1.347       .  D
C398        H406   1.087       .  S
C407        C415   1.486       .  S
C407        C408   1.402       .  A
C407        C412   1.408       .  A
C408        C409   1.400       .  A
C408        H417   1.082       .  S
C409        C410   1.409       .  A
C409        H418   1.082       .  S
C410        C413   1.485   1_556  S
C410        C411   1.401       .  A
C411        C412   1.395       .  A
C411        H419   1.083   1_556  S
C412        H420   1.083       .  S
C413        H421   1.086       .  S
C413        C414   1.343       .  D
C414        H422   1.084   1_554  S
C415        H423   1.084       .  S
C415        C416   1.346       .  D
C416        H424   1.085       .  S
C425        C433   1.486       .  S
C425        C426   1.403       .  A
C425        C430   1.406       .  A
C426        C427   1.403   1_455  A
C426        H435   1.083       .  S
C427        C428   1.410       .  A
C427        H436   1.082       .  S
C428        C431   1.490       .  S
C428        C429   1.403       .  A
C429        C430   1.399   1_655  A
C429        H437   1.083       .  S
C430        H438   1.083       .  S
C431        H439   1.087       .  S
C431        C432   1.346       .  D
C432        H440   1.086       .  S
C433        H441   1.084       .  S
C433        C434   1.348       .  D
C434        H442   1.089       .  S
C443        C451   1.487       .  S
C443        C444   1.404       .  A
C443        C448   1.407       .  A
C444        C445   1.400       .  A
C444        H453   1.083   1_554  S
C445        C446   1.408       .  A
C445        H454   1.082   1_554  S
C446        C449   1.484       .  S
C446        C447   1.402       .  A
C447        C448   1.396       .  A
C447        H455   1.084       .  S
C448        H456   1.081       .  S
C449        H457   1.088       .  S
C449        C450   1.348   1_554  D
C450        H458   1.086       .  S
C451        H459   1.087       .  S
C451        C452   1.346       .  D
C452        H460   1.085       .  S
C461        C469   1.483       .  S
C461        C462   1.405       .  A
C461        C466   1.407       .  A
C462        C463   1.401       .  A
C462        H471   1.084       .  S
C463        C464   1.404       .  A
C463        H472   1.082       .  S
C464        C467   1.475       .  S
C464        C465   1.400       .  A
C465        C466   1.394       .  A
C465        H473   1.084       .  S
C466        H474   1.081       .  S
C467        H475   1.087       .  S
C467        C468   1.347       .  D
C468        H476   1.088       .  S
C469        H477   1.087       .  S
C469        C470   1.345       .  D
C470        H478   1.086       .  S
C479        C487   1.492       .  S
C479        C480   1.402       .  A
C479        C484   1.411       .  A
C480        C481   1.400       .  A
C480        H489   1.084       .  S
C481        C482   1.411       .  A
C481        H490   1.081       .  S
C482        C485   1.490       .  S
C482        C483   1.400       .  A
C483        C484   1.398       .  A
C483        H491   1.084       .  S
C484        H492   1.081       .  S
C485        H493   1.087       .  S
C485        C486   1.346       .  D
C486        H494   1.086       .  S
C487        H495   1.085       .  S
C487        C488   1.345       .  D
C488        H496   1.086       .  S
C497        C505   1.486       .  S
C497        C498   1.402       .  A
C497        C502   1.408       .  A
C498        C499   1.399       .  A
C498        H507   1.083       .  S
C499        C500   1.408       .  A
C499        H508   1.082       .  S
C500        C503   1.485       .  S
C500        C501   1.402       .  A
C501        C502   1.396       .  A
C501        H509   1.083       .  S
C502        H510   1.082       .  S
C503        H511   1.087       .  S
C503        C504   1.345       .  D
C504        H512   1.084       .  S
C505        H513   1.083       .  S
C505        C506   1.348       .  D
C506        H514   1.084       .  S
C515        C523   1.490       .  S
C515        C516   1.404       .  A
C515        C520   1.406       .  A
C516        C517   1.406       .  A
C516        H525   1.083       .  S
C517       C1122   1.410       .  A
C517        H526   1.082   1_545  S
C518        C521   1.491       .  S
C518        C519   1.403       .  A
C518       C1121   1.410       .  A
C519       C1124   1.397       .  A
C519        H527   1.083       .  S
C520       C1123   1.397       .  A
C520        H528   1.083       .  S
C521        H529   1.087       .  S
C521        C522   1.349       .  D
C522        H530   1.085       .  S
C523        H531   1.086       .  S
C523        C524   1.348       .  D
C524        H532   1.087       .  S
C533        C541   1.486       .  S
C533        C534   1.402       .  A
C533        C538   1.410       .  A
C534        C535   1.398       .  A
C534        H543   1.083       .  S
C535        C536   1.409       .  A
C535        H544   1.081       .  S
C536        C539   1.485       .  S
C536        C537   1.400       .  A
C537        C538   1.396       .  A
C537        H545   1.083       .  S
C538        H546   1.081       .  S
C539        H547   1.087       .  S
C539        C540   1.342       .  D
C540        H548   1.085       .  S
C541        H549   1.087       .  S
C541        C542   1.345       .  D
C542        H550   1.087       .  S
C551        C559   1.480       .  S
C551       C1156   1.400       .  A
C551       C1160   1.407       .  A
C552        C553   1.398       .  A
C552       C1155   1.401   1_545  A
C552       H1165   1.083   1_545  S
C553        C554   1.410       .  A
C553        H562   1.081       .  S
C554        C557   1.485       .  S
C554        C555   1.402       .  A
C555        C556   1.396       .  A
C555        H563   1.083       .  S
C556       C1155   1.407   1_545  A
C556        H564   1.083       .  S
C557        H565   1.087       .  S
C557        C558   1.346       .  D
C558        H566   1.084       .  S
C559        H567   1.086       .  S
C559        C560   1.341       .  D
C560        H568   1.086       .  S
H561       C1156   1.083       .  S
C569        C577   1.496       .  S
C569        C570   1.404       .  A
C569        C574   1.410       .  A
C570        C571   1.401       .  A
C570        H579   1.083       .  S
C571        C572   1.409       .  A
C571        H580   1.082       .  S
C572        C575   1.494       .  S
C572        C573   1.404       .  A
C573        C574   1.402       .  A
C573        H581   1.083       .  S
C574        H582   1.081       .  S
C575        H583   1.084       .  S
C575        C576   1.350       .  D
C576        H584   1.085       .  S
C577        H585   1.087       .  S
C577        C578   1.347       .  D
C578        H586   1.085       .  S
C587        C595   1.492       .  S
C587        C588   1.405       .  A
C587        C592   1.410       .  A
C588        C589   1.398       .  A
C588        H597   1.083       .  S
C589        C590   1.407       .  A
C589        H598   1.082       .  S
C590        C593   1.488       .  S
C590        C591   1.403       .  A
C591        C592   1.400       .  A
C591        H599   1.083       .  S
C592        H600   1.080       .  S
C593        H601   1.087       .  S
C593        C594   1.349       .  D
C594        H602   1.085       .  S
C595        H603   1.087       .  S
C595        C596   1.348       .  D
C596        H604   1.083       .  S
Zn605       O609   1.972       .  S
Zn605       O610   2.031       .  S
Zn605       O614   2.048       .  S
Zn605       O621   2.045       .  S
Zn606       O609   1.972       .  S
Zn606       O611   2.037       .  S
Zn606       O613   2.020       .  S
Zn606       O617   2.055       .  S
Zn607       O609   1.953       .  S
Zn607       O612   2.016       .  S
Zn607       O615   1.989       .  S
Zn607       O618   2.010       .  S
Zn608       O609   1.950       .  S
Zn608       O616   2.019       .  S
Zn608       O619   2.013       .  S
Zn608       O620   2.000       .  S
O610        C622   1.275       .  A
O611        C623   1.277       .  A
O612        C624   1.274       .  A
O613        C622   1.276       .  A
O614        C624   1.276       .  A
O615        C623   1.270       .  A
O616        C625   1.274       .  A
O617        C626   1.277       .  A
O618        C625   1.271       .  A
O619        C626   1.272       .  A
O620        C627   1.272       .  A
O621        C627   1.278       .  A
C622       C1200   1.481       .  S
C623       C1164   1.471       .  S
C624       C1126   1.486       .  S
C625       C1108   1.475       .  S
C626       C1182   1.483       .  S
C627       C1144   1.476       .  S
C628       C1072   1.530       .  S
C628       C1090   1.531       .  S
C628       C1162   1.525       .  S
C628       C1180   1.535       .  S
C629       C1054   1.526       .  S
C629       C1092   1.526   1_556  S
C629       C1128   1.532       .  S
C629       C1146   1.525       .  S
Zn630       O634   1.962       .  S
Zn630       O635   2.017       .  S
Zn630       O639   2.024       .  S
Zn630       O646   2.024       .  S
Zn631       O634   1.975       .  S
Zn631       O636   2.039       .  S
Zn631       O638   2.036       .  S
Zn631       O642   2.044       .  S
Zn632       O634   1.952       .  S
Zn632       O637   2.003       .  S
Zn632       O640   1.995       .  S
Zn632       O643   2.011       .  S
Zn633       O634   1.955       .  S
Zn633       O641   2.020       .  S
Zn633       O644   1.994       .  S
Zn633       O645   1.999       .  S
O635        C647   1.273       .  A
O636        C648   1.277       .  A
O637        C649   1.270       .  A
O638        C647   1.276       .  A
O639        C649   1.274       .  A
O640        C648   1.271       .  A
O641        C650   1.273       .  A
O642        C651   1.277       .  A
O643        C650   1.271       .  A
O644        C651   1.270       .  A
O645        C652   1.270       .  A
O646        C652   1.276       .  A
C647       C1036   1.479       .  S
C648        C964   1.474       .  S
C649        C984   1.472       .  S
C650       C1056   1.476       .  S
C651       C1000   1.473       .  S
C652       C1018   1.473       .  S
C653        C928   1.529       .  S
C653        C946   1.530       .  S
C653       C1002   1.528       .  S
C653       C1020   1.529       .  S
C654        C948   1.527       .  S
C654        C966   1.528       .  S
C654        C982   1.524       .  S
C654       C1110   1.531       .  S
Zn655       O659   1.948       .  S
Zn655       O660   2.000       .  S
Zn655       O664   1.989       .  S
Zn655       O671   2.008       .  S
Zn656       O659   1.958       .  S
Zn656       O661   2.010       .  S
Zn656       O663   2.028       .  S
Zn656       O667   2.021       .  S
Zn657       O659   1.970       .  S
Zn657       O662   2.048       .  S
Zn657       O665   2.048       .  S
Zn657       O668   2.031       .  S
Zn658       O659   1.957       .  S
Zn658       O666   2.021       .  S
Zn658       O669   2.019       .  S
Zn658       O670   2.021       .  S
O660        C672   1.270       .  A
O661        C673   1.273       .  A
O662        C674   1.277       .  A
O663        C672   1.274       .  A
O664        C674   1.270       .  A
O665        C673   1.278       .  A
O666        C675   1.276       .  A
O667        C676   1.273       .  A
O668        C675   1.275       .  A
O669        C676   1.275       .  A
O670        C677   1.272       .  A
O671        C677   1.272       .  A
C672        C910   1.473       .  S
C673        C838   1.479       .  S
C674        C856   1.474       .  S
C675        C874   1.479       .  S
C676        C894   1.479       .  S
C677       C1074   1.475       .  S
C678        C820   1.526       .  S
C678        C892   1.529       .  S
C678        C912   1.528       .  S
C678       C1198   1.528       .  S
C679        C802   1.522       .  S
C679        C822   1.535   1_554  S
C679        C858   1.536       .  S
C679        C876   1.534       .  S
Zn680       O684   1.957       .  S
Zn680       O685   2.005       .  S
Zn680       O689   2.037       .  S
Zn680       O696   2.028       .  S
Zn681       O684   1.976       .  S
Zn681       O686   2.042       .  S
Zn681       O688   2.046       .  S
Zn681       O692   2.043       .  S
Zn682       O684   1.942       .  S
Zn682       O687   1.991       .  S
Zn682       O690   1.982       .  S
Zn682       O693   1.993       .  S
Zn683       O684   1.951       .  S
Zn683       O691   2.016       .  S
Zn683       O694   2.008       .  S
Zn683       O695   1.998       .  S
O685        C697   1.273       .  A
O686        C698   1.276       .  A
O687        C699   1.268       .  A
O688        C697   1.278       .  A
O689        C699   1.275       .  A
O690        C698   1.269       .  A
O691        C700   1.271       .  A
O692        C701   1.276       .  A
O693        C700   1.270       .  A
O694        C701   1.273       .  A
O695        C702   1.271       .  A
O696        C702   1.276       .  A
C697        C732   1.477       .  S
C698        C930   1.469       .  S
C699        C766   1.472   1_556  S
C700        C784   1.471       .  S
C701        C750   1.482       .  S
C702        C804   1.472       .  S
C703        C712   1.531       .  S
C703        C768   1.529       .  S
C703        C786   1.532       .  S
C703       C1038   1.528       .  S
C704        C714   1.530       .  S
C704        C730   1.534       .  S
C704        C748   1.529       .  S
C704        C840   1.535       .  S
C705        C713   1.487       .  S
C705        C706   1.403       .  A
C705        C710   1.408       .  A
C706        C707   1.398       .  A
C706        H715   1.083       .  S
C707        C708   1.407       .  A
C707        H716   1.081       .  S
C708        C711   1.486       .  S
C708        C709   1.403       .  A
C709        C710   1.398       .  A
C709        H717   1.083       .  S
C710        H718   1.081       .  S
C711        H719   1.084       .  S
C711        C712   1.352       .  D
C712        H720   1.086       .  S
C713        H721   1.087       .  S
C713        C714   1.349       .  D
C714        H722   1.085       .  S
C723        C731   1.494       .  S
C723        C724   1.405       .  A
C723        C728   1.410       .  A
C724        C725   1.402       .  A
C724        H733   1.084       .  S
C725        C726   1.409       .  A
C725        H734   1.081       .  S
C726        C729   1.489       .  S
C726        C727   1.402       .  A
C727        C728   1.397       .  A
C727        H735   1.084       .  S
C728        H736   1.080       .  S
C729        H737   1.085       .  S
C729        C730   1.348       .  D
C730        H738   1.086       .  S
C731        H739   1.087       .  S
C731        C732   1.347       .  D
C732        H740   1.084       .  S
C741        C749   1.488   1_545  S
C742        C743   1.398       .  A
C743        C744   1.407       .  A
C743        H752   1.082       .  S
C744        C747   1.485       .  S
C744        C745   1.403       .  A
C745        C746   1.399       .  A
C745        H753   1.084       .  S
C747        H755   1.087       .  S
C747        C748   1.347       .  D
C748        H756   1.086       .  S
C749        H757   1.087       .  S
C749        C750   1.349       .  D
C750        H758   1.085       .  S
C759        C767   1.484       .  S
C759        C760   1.400       .  A
C759        C764   1.409       .  A
C760        C761   1.397       .  A
C760        H769   1.083       .  S
C761        C762   1.410       .  A
C761        H770   1.081       .  S
C762        C765   1.487       .  S
C762        C763   1.402       .  A
C763        C764   1.398       .  A
C763        H771   1.083       .  S
C764        H772   1.082       .  S
C765        H773   1.087       .  S
C765        C766   1.343       .  D
C766        H774   1.085       .  S
C767        H775   1.085       .  S
C767        C768   1.347       .  D
C768        H776   1.087       .  S
C777        C785   1.482       .  S
C777        C778   1.402       .  A
C777        C782   1.408       .  A
C778        C779   1.393       .  A
C778        H787   1.084       .  S
C779        H788   1.081       .  S
C780        C783   1.479   1_545  S
C780        C781   1.402       .  A
C781        H789   1.084   1_545  S
C782        H790   1.080       .  S
C783        H791   1.087       .  S
C783        C784   1.345   1_554  D
C784        H792   1.086       .  S
C785        H793   1.084       .  S
C785        C786   1.351       .  D
C786        H794   1.086       .  S
C795        C803   1.485       .  S
C795        C796   1.403       .  A
C795        C800   1.408       .  A
C796        C797   1.398   1_556  A
C796        H805   1.083   1_556  S
C797        C798   1.408   1_554  A
C797        H806   1.082       .  S
C798        C801   1.482       .  S
C798        C799   1.401       .  A
C799        C800   1.396       .  A
C799        H807   1.083       .  S
C800        H808   1.081       .  S
C801        H809   1.086       .  S
C801        C802   1.346   1_556  D
C802        H810   1.087       .  S
C803        H811   1.087       .  S
C803        C804   1.344       .  D
C804        H812   1.084       .  S
C813        C821   1.490       .  S
C813        C814   1.404       .  A
C813        C818   1.409       .  A
C814        C815   1.401       .  A
C814        H823   1.084       .  S
C815        C816   1.408       .  A
C815        H824   1.082       .  S
C816        C819   1.486       .  S
C816        C817   1.402       .  A
C817        C818   1.398       .  A
C817        H825   1.084       .  S
C818        H826   1.082       .  S
C819        H827   1.088       .  S
C819        C820   1.348       .  D
C820        H828   1.087       .  S
C821        H829   1.085       .  S
C821        C822   1.350       .  D
C822        H830   1.085       .  S
C831        C839   1.492       .  S
C831        C832   1.403       .  A
C831        C836   1.410       .  A
C832        C833   1.397       .  A
C832        H841   1.083       .  S
C833        C834   1.409       .  A
C833        H842   1.080       .  S
C834        C837   1.495       .  S
C834        C835   1.405       .  A
C835        C836   1.403       .  A
C835        H843   1.083       .  S
C836        H844   1.080       .  S
C837        H845   1.086       .  S
C837        C838   1.348       .  D
C838        H846   1.082       .  S
C839        H847   1.081       .  S
C839        C840   1.350       .  D
C840        H848   1.083       .  S
C849        C857   1.485       .  S
C849        C850   1.401       .  A
C849        C854   1.409       .  A
C850        C851   1.396       .  A
C850        H859   1.084       .  S
C851        C852   1.408       .  A
C851        H860   1.082       .  S
C852        C855   1.487       .  S
C852        C853   1.402       .  A
C853        C854   1.401       .  A
C853        H861   1.083       .  S
C854        H862   1.082       .  S
C855        H863   1.087       .  S
C855        C856   1.343       .  D
C856        H864   1.086       .  S
C857        H865   1.085       .  S
C857        C858   1.350       .  D
C858        H866   1.087       .  S
C867        C875   1.485       .  S
C867        C868   1.403       .  A
C867        C872   1.407       .  A
C869        H878   1.082       .  S
C870        C871   1.403       .  A
C871        C872   1.398       .  A
C871        H879   1.083       .  S
C872        H880   1.083       .  S
C873        H881   1.087       .  S
C873        C874   1.346       .  D
C874        H882   1.086       .  S
C875        H883   1.084       .  S
C875        C876   1.349       .  D
C876        H884   1.088       .  S
C885        C886   1.403       .  A
C886        C887   1.398       .  A
C886        H895   1.084       .  S
C887        C888   1.408       .  A
C887        H896   1.082       .  S
C888        C891   1.491       .  S
C888        C889   1.403       .  A
C890        H898   1.081       .  S
C891        H899   1.086       .  S
C891        C892   1.347       .  D
C892        H900   1.086       .  S
C893        H901   1.088       .  S
C893        C894   1.346       .  D
C894        H902   1.085       .  S
C903        C911   1.482       .  S
C903        C904   1.401       .  A
C903        C908   1.407       .  A
C904        C905   1.396       .  A
C904        H913   1.084       .  S
C905        C906   1.408       .  A
C905        H914   1.081       .  S
C906        C909   1.487       .  S
C906        C907   1.403       .  A
C907        C908   1.399       .  A
C907        H915   1.083       .  S
C908        H916   1.082       .  S
C909        H917   1.087       .  S
C909        C910   1.345       .  D
C910        H918   1.084       .  S
C911        H919   1.087       .  S
C911        C912   1.348       .  D
C912        H920   1.086       .  S
C921        C929   1.484       .  S
C921        C922   1.403       .  A
C921        C926   1.407       .  A
C922        C923   1.401   1_455  A
C922        H931   1.082       .  S
C923        C924   1.408       .  A
C923        H932   1.083       .  S
C924        C927   1.479       .  S
C924        C925   1.400       .  A
C925        C926   1.392   1_655  A
C925        H933   1.083       .  S
C926        H934   1.083       .  S
C927        H935   1.086       .  S
C927        C928   1.347       .  D
C928        H936   1.085       .  S
C929        H937   1.086       .  S
C929        C930   1.343       .  D
C930        H938   1.086       .  S
C939        C947   1.482       .  S
C939        C940   1.406       .  A
C939        C944   1.403       .  A
C940        C941   1.399       .  A
C940        H949   1.083       .  S
C941        C942   1.408       .  A
C941        H950   1.082       .  S
C942        C945   1.482       .  S
C942        C943   1.401       .  A
C943        C944   1.396       .  A
C943        H951   1.085       .  S
C944        H952   1.083       .  S
C945        H953   1.085       .  S
C945        C946   1.346       .  D
C946        H954   1.087       .  S
C947        H955   1.086       .  S
C947        C948   1.349       .  D
C948        H956   1.086       .  S
C957        C965   1.485       .  S
C957        C958   1.401       .  A
C957        C962   1.408       .  A
C959        H968   1.081       .  S
C960        C961   1.400   1_545  A
C961        C962   1.395       .  A
C961        H969   1.083       .  S
C962        H970   1.082       .  S
C963        H971   1.087       .  S
C963        C964   1.343       .  D
C964        H972   1.084       .  S
C965        H973   1.087       .  S
C965        C966   1.346       .  D
C966        H974   1.087       .  S
C975        C983   1.482       .  S
C975        C976   1.403       .  A
C975        C980   1.406       .  A
C976        C977   1.399       .  A
C976        H985   1.083       .  S
C977        C978   1.407       .  A
C977        H986   1.082       .  S
C978        C981   1.480       .  S
C978        C979   1.402       .  A
C979        C980   1.395       .  A
C979        H987   1.084       .  S
C980        H988   1.082       .  S
C981        H989   1.087       .  S
C981        C982   1.349       .  D
C982        H990   1.086       .  S
C983        H991   1.087       .  S
C983        C984   1.343       .  D
C984        H992   1.086       .  S
C993       C1001   1.482       .  S
C993        C994   1.402       .  A
C993        C998   1.408       .  A
C994       H1003   1.084       .  S
C995        C996   1.408       .  A
C995       H1004   1.082       .  S
C996        C999   1.486   1_556  S
C997        C998   1.398       .  A
C997       H1005   1.084       .  S
C998       H1006   1.081       .  S
C999       H1007   1.087       .  S
C999       C1000   1.343       .  D
C1000      H1008   1.086   1_554  S
C1001      H1009   1.085       .  S
C1001      C1002   1.349       .  D
C1002      H1010   1.087       .  S
C1011      C1019   1.485       .  S
C1011      C1012   1.402       .  A
C1011      C1016   1.408       .  A
C1012      C1013   1.400       .  A
C1012      H1021   1.082       .  S
C1013      C1014   1.409       .  A
C1013      H1022   1.082       .  S
C1014      C1017   1.482   1_556  S
C1014      C1015   1.400       .  A
C1015      C1016   1.394       .  A
C1015      H1023   1.083   1_556  S
C1016      H1024   1.083       .  S
C1017      H1025   1.086       .  S
C1017      C1018   1.342       .  D
C1018      H1026   1.084   1_554  S
C1019      H1027   1.084       .  S
C1019      C1020   1.346       .  D
C1020      H1028   1.085       .  S
C1029      C1037   1.486       .  S
C1029      C1030   1.402       .  A
C1029      C1034   1.407       .  A
C1030      C1031   1.402   1_455  A
C1030      H1039   1.083       .  S
C1031      C1032   1.409       .  A
C1031      H1040   1.082       .  S
C1032      C1035   1.487       .  S
C1032      C1033   1.402       .  A
C1033      C1034   1.398   1_655  A
C1033      H1041   1.083       .  S
C1034      H1042   1.083       .  S
C1035      H1043   1.087       .  S
C1035      C1036   1.345       .  D
C1036      H1044   1.086       .  S
C1037      H1045   1.085       .  S
C1037      C1038   1.348       .  D
C1038      H1046   1.088       .  S
C1047      C1055   1.487       .  S
C1047      C1048   1.404       .  A
C1047      C1052   1.407       .  A
C1048      C1049   1.400       .  A
C1048      H1057   1.083   1_554  S
C1049      C1050   1.407       .  A
C1049      H1058   1.082   1_554  S
C1050      C1053   1.484       .  S
C1050      C1051   1.403       .  A
C1051      C1052   1.397       .  A
C1051      H1059   1.084       .  S
C1052      H1060   1.081       .  S
C1053      H1061   1.088       .  S
C1053      C1054   1.349   1_554  D
C1054      H1062   1.086       .  S
C1055      H1063   1.087       .  S
C1055      C1056   1.346       .  D
C1056      H1064   1.085       .  S
C1065      C1073   1.482       .  S
C1065      C1066   1.404       .  A
C1065      C1070   1.406       .  A
C1066      C1067   1.402       .  A
C1066      H1075   1.084       .  S
C1067      C1068   1.406       .  A
C1067      H1076   1.082       .  S
C1068      C1071   1.479       .  S
C1068      C1069   1.401       .  A
C1069      C1070   1.394       .  A
C1069      H1077   1.084       .  S
C1070      H1078   1.082       .  S
C1071      H1079   1.088       .  S
C1071      C1072   1.349       .  D
C1072      H1080   1.087       .  S
C1073      H1081   1.087       .  S
C1073      C1074   1.345       .  D
C1074      H1082   1.087       .  S
C1083      C1091   1.491       .  S
C1083      C1084   1.401       .  A
C1083      C1088   1.411       .  A
C1084      C1085   1.400       .  A
C1084      H1093   1.084       .  S
C1085      C1086   1.412       .  A
C1085      H1094   1.081       .  S
C1086      C1089   1.491       .  S
C1086      C1087   1.401       .  A
C1087      C1088   1.398       .  A
C1087      H1095   1.084       .  S
C1088      H1096   1.081       .  S
C1089      H1097   1.086       .  S
C1089      C1090   1.346       .  D
C1090      H1098   1.085       .  S
C1091      H1099   1.085       .  S
C1091      C1092   1.345       .  D
C1092      H1100   1.087       .  S
C1101      C1109   1.484       .  S
C1101      C1102   1.402       .  A
C1101      C1106   1.407       .  A
C1102      C1103   1.399       .  A
C1102      H1111   1.083       .  S
C1103      C1104   1.409       .  A
C1103      H1112   1.081       .  S
C1104      C1107   1.485       .  S
C1104      C1105   1.402       .  A
C1105      C1106   1.396       .  A
C1105      H1113   1.083       .  S
C1106      H1114   1.083       .  S
C1107      H1115   1.087       .  S
C1107      C1108   1.345       .  D
C1108      H1116   1.085       .  S
C1109      H1117   1.083       .  S
C1109      C1110   1.348       .  D
C1110      H1118   1.085       .  S
C1119      C1127   1.492       .  S
C1119      C1120   1.405       .  A
C1119      C1124   1.407       .  A
C1120      C1121   1.406       .  A
C1120      H1129   1.083       .  S
C1121      H1130   1.082       .  S
C1122      C1125   1.491   1_545  S
C1122      C1123   1.403       .  A
C1123      H1131   1.083       .  S
C1124      H1132   1.083       .  S
C1125      H1133   1.087       .  S
C1125      C1126   1.349       .  D
C1126      H1134   1.085       .  S
C1127      H1135   1.086       .  S
C1127      C1128   1.348       .  D
C1128      H1136   1.087       .  S
C1137      C1145   1.490       .  S
C1137      C1138   1.402       .  A
C1137      C1142   1.410       .  A
C1138      C1139   1.400       .  A
C1138      H1147   1.083       .  S
C1139      C1140   1.410       .  A
C1139      H1148   1.081       .  S
C1140      C1143   1.489       .  S
C1140      C1141   1.401       .  A
C1141      C1142   1.397       .  A
C1141      H1149   1.083       .  S
C1142      H1150   1.081       .  S
C1143      H1151   1.086       .  S
C1143      C1144   1.344       .  D
C1144      H1152   1.084       .  S
C1145      H1153   1.087       .  S
C1145      C1146   1.346       .  D
C1146      H1154   1.086       .  S
C1155      C1163   1.482       .  S
C1156      C1157   1.397       .  A
C1157      C1158   1.409       .  A
C1157      H1166   1.082       .  S
C1158      C1161   1.484       .  S
C1158      C1159   1.402       .  A
C1159      C1160   1.397       .  A
C1159      H1167   1.083       .  S
C1160      H1168   1.083       .  S
C1161      H1169   1.087       .  S
C1161      C1162   1.345       .  D
C1162      H1170   1.085       .  S
C1163      H1171   1.086       .  S
C1163      C1164   1.342       .  D
C1164      H1172   1.085       .  S
C1173      C1181   1.497       .  S
C1173      C1174   1.404       .  A
C1173      C1178   1.410       .  A
C1174      C1175   1.402       .  A
C1174      H1183   1.083       .  S
C1175      C1176   1.410       .  A
C1175      H1184   1.082       .  S
C1176      C1179   1.496       .  S
C1176      C1177   1.404       .  A
C1177      C1178   1.402       .  A
C1177      H1185   1.083       .  S
C1178      H1186   1.081       .  S
C1179      H1187   1.084       .  S
C1179      C1180   1.351       .  D
C1180      H1188   1.085       .  S
C1181      H1189   1.087       .  S
C1181      C1182   1.348       .  D
C1182      H1190   1.085       .  S
C1191      C1199   1.493       .  S
C1191      C1192   1.405       .  A
C1191      C1196   1.410       .  A
C1192      C1193   1.397       .  A
C1192      H1201   1.083       .  S
C1193      C1194   1.406       .  A
C1193      H1202   1.082       .  S
C1194      C1197   1.488       .  S
C1194      C1195   1.404       .  A
C1195      C1196   1.401       .  A
C1195      H1203   1.083       .  S
C1196      H1204   1.080       .  S
C1197      H1205   1.087       .  S
C1197      C1198   1.349       .  D
C1198      H1206   1.086       .  S
C1199      H1207   1.088       .  S
C1199      C1200   1.349       .  D
C1200      H1208   1.084       .  S
