geometry optimzed in LAMMPS
_audit_creation_date              2020-11-30 
_audit_creation_method            'lammps2cif' 
_symmetry_space_group_name_H-M    'P1' 
_symmetry_Int_Tables_number       1 
_symmetry_cell_setting            triclinic 
loop_ 
_symmetry_equiv_pos_as_xyz 
  x,y,z 
_cell_length_a                    29.60226174245587 
_cell_length_b                    35.75372855477105 
_cell_length_c                    29.588348538987628 
_cell_angle_alpha                 89.96284399574617 
_cell_angle_beta                  90.0742987888992 
_cell_angle_gamma                 90.08990580919956 
loop_ 
_atom_site_label 
_atom_site_type_symbol 
_atom_site_fract_x 
_atom_site_fract_y 
_atom_site_fract_z 
_atom_site_charge 
C1          C  0.71496597  0.00400864  0.27388251     0.03300
C2          C  0.70428342  0.46670454  0.26463760    -0.12850
C3          C  0.72911606  0.44650686  0.23334222     0.00800
C4          C  0.76327382  0.46394426  0.20915598    -0.11370
C5          C  0.77441717  0.00131908  0.21757205     0.03300
C6          C  0.75036254  0.02178705  0.25034812    -0.10790
H7          H  0.67872443  0.45243574  0.28453001     0.08890
H8          H  0.78360857  0.44757195  0.18597275     0.06420
H9          H  0.75984050  0.05029322  0.25830903     0.06270
C10         C  0.71427073  0.22882467  0.27510968     0.03300
C11         C  0.70809531  0.26722868  0.26924308    -0.12850
C12         C  0.73589518  0.28744965  0.24057286     0.00800
C13         C  0.76913917  0.26944383  0.21585527    -0.11370
C14         C  0.77580876  0.23092390  0.22048437     0.03300
C15         C  0.74849681  0.21013499  0.25065857    -0.10790
H16         H  0.68240198  0.28182315  0.28851735     0.08890
H17         H  0.79067456  0.28565893  0.19353651     0.06420
H18         H  0.75380563  0.18040858  0.25507892     0.06270
C19         C  0.78026137  0.25264072  0.78196295     0.03300
C20         C  0.78309519  0.21364206  0.78010494    -0.12850
C21         C  0.76079902  0.19378207  0.74664570     0.00800
C22         C  0.73563370  0.21257872  0.71431196    -0.11370
C23         C  0.73335405  0.25166816  0.71440993     0.03300
C24         C  0.75528539  0.27213836  0.74885369    -0.10790
H25         H  0.80264204  0.19851073  0.80520584     0.08890
H26         H  0.71725732  0.19657057  0.68911452     0.06420
H27         H  0.75295616  0.30234172  0.74986228     0.06270
C28         C  0.72487383  0.47665763  0.72337481     0.03300
C29         C  0.72637848  0.01571122  0.72355546    -0.12850
C30         C  0.75552226  0.03459238  0.75223827     0.00800
C31         C  0.78402518  0.01493888  0.78077028    -0.11370
C32         C  0.78367231  0.47587539  0.78125235     0.03300
C33         C  0.75372761  0.45614759  0.75245223    -0.10790
H34         H  0.70445454  0.03159331  0.70125480     0.08890
H35         H  0.80700923  0.03022426  0.80264362     0.06420
H36         H  0.75301315  0.42587906  0.75254868     0.06270
C37         C  0.26927725  0.48068862  0.71294277     0.03300
C38         C  0.25438940  0.01556995  0.69771812    -0.12850
C39         C  0.22005899  0.03440260  0.72013789     0.00800
C40         C  0.19710206  0.01694330  0.75521631    -0.11370
C41         C  0.21087358  0.48184130  0.77093815     0.03300
C42         C  0.24744053  0.46338140  0.74990441    -0.10790
H43         H  0.27328643  0.03014923  0.67166010     0.08890
H44         H  0.17177603  0.03254444  0.77380110     0.06420
H45         H  0.26007348  0.43727124  0.76344269     0.06270
C46         C  0.27259188  0.24934860  0.71459117     0.03300
C47         C  0.26081867  0.21282825  0.70246068    -0.12850
C48         C  0.22720937  0.19377830  0.72569415     0.00800
C49         C  0.20226671  0.21208224  0.75860484    -0.11370
C50         C  0.21247247  0.24906171  0.77034109     0.03300
C51         C  0.24830350  0.26794308  0.74875128    -0.10790
H52         H  0.28062234  0.19798560  0.67738084     0.08890
H53         H  0.17675985  0.19672307  0.77732365     0.06420
H54         H  0.25775910  0.29593395  0.75906504     0.06270
Zn55       Zn  0.55588233  0.46009104  0.49219496     1.49720
Zn56       Zn  0.50179433  0.03199667  0.45794387     1.49360
Zn57       Zn  0.44869152  0.46056682  0.49529567     1.49110
Zn58       Zn  0.50432816  0.01637321  0.56318784     1.49480
O59         O  0.50273860  0.49205010  0.50285169    -1.83950
O60         O  0.59456334  0.48100802  0.44113509    -0.74580
O61         O  0.44708827  0.02971605  0.41921835    -0.74400
O62         O  0.46396247  0.40545593  0.48367059    -0.73920
O63         O  0.55570099  0.03051714  0.41816292    -0.74600
O64         O  0.53894179  0.40516414  0.48032921    -0.74200
O65         O  0.40830350  0.48116881  0.44540913    -0.74780
O66         O  0.44951676  0.99892840  0.59967335    -0.74170
O67         O  0.50160161  0.08283321  0.48498487    -0.74930
O68         O  0.41322009  0.46062799  0.55327054    -0.74320
O69         O  0.50509837  0.07522253  0.55932762    -0.74780
O70         O  0.55986118  0.99727529  0.59715800    -0.74690
O71         O  0.59404636  0.45914567  0.54860590    -0.74480
C72         C  0.58980112  0.50924099  0.41510322     0.77310
C73         C  0.41257892  0.50868233  0.41818913     0.77800
C74         C  0.50119916  0.38787552  0.47964920     0.76760
C75         C  0.41686906  0.47640223  0.59163203     0.77130
C76         C  0.50332786  0.09644905  0.52447404     0.78270
C77         C  0.59177077  0.47463891  0.58727169     0.77320
Zn78       Zn  0.50057889  0.26647103  0.44405485     1.49720
Zn79       Zn  0.55603941  0.21018283  0.51135940     1.49360
Zn80       Zn  0.50336223  0.28182544  0.54951084     1.49110
Zn81       Zn  0.44885575  0.20991144  0.51376881     1.49480
O82         O  0.50212028  0.24196530  0.50411794    -1.83950
O83         O  0.55414016  0.24786369  0.40733362    -0.74580
O84         O  0.59733356  0.23156256  0.55948241    -0.74400
O85         O  0.50100983  0.33290221  0.52236898    -0.73920
O86         O  0.59107855  0.20893893  0.45294614    -0.74600
O87         O  0.50120923  0.32527079  0.44791995    -0.74200
O88         O  0.56009414  0.28072950  0.58589305    -0.74780
O89         O  0.41211013  0.22930070  0.56666539    -0.74170
O90         O  0.54070112  0.15532999  0.52508488    -0.74930
O91         O  0.45126744  0.27830876  0.59197043    -0.74320
O92         O  0.46567146  0.15501715  0.52440687    -0.74780
O93         O  0.40979922  0.20978015  0.45757942    -0.74690
O94         O  0.44486241  0.24815515  0.40987645    -0.74480
C95         C  0.58614899  0.22472320  0.41466410     0.77310
C96         C  0.59448951  0.25958475  0.58602434     0.77800
C97         C  0.50098530  0.34651827  0.48276817     0.76760
C98         C  0.41760010  0.25637424  0.59421116     0.77130
C99         C  0.50323751  0.13776970  0.52733175     0.78270
C100        C  0.41261313  0.22558631  0.41907980     0.77320
C101        C  0.22827338  0.00374721  0.21956422     0.03300
C102        C  0.25283844  0.02307120  0.25310545    -0.12850
C103        C  0.27935988  0.00236199  0.28381650     0.00800
C104        C  0.28144987  0.46341956  0.28028938    -0.11370
C105        C  0.25662339  0.44484524  0.24755057     0.03300
C106        C  0.22997404  0.46472781  0.21756332    -0.10790
H107        H  0.25117997  0.05325826  0.25538831     0.08890
H108        H  0.30195230  0.44739499  0.30375627     0.06420
H109        H  0.21009126  0.44968570  0.19262228     0.06270
C110        C  0.28211703  0.22821955  0.27982862     0.03300
C111        C  0.28193612  0.26725455  0.27772108    -0.12850
C112        C  0.25295465  0.28582772  0.24858895     0.00800
C113        C  0.22405875  0.26585603  0.22075008    -0.11370
C114        C  0.22280358  0.22683134  0.22247118     0.03300
C115        C  0.25208167  0.20742770  0.25222194    -0.10790
H116        H  0.30444046  0.28337051  0.29921875     0.08890
H117        H  0.20193524  0.28087323  0.19778129     0.06420
H118        H  0.25153533  0.17718563  0.25381294     0.06270
Zn119      Zn  0.00212702  0.01416856  0.94432429     1.49720
Zn120      Zn  0.00266571  0.03050208  0.04944810     1.49360
Zn121      Zn  0.94993315  0.45798972  0.01423805     1.49110
Zn122      Zn  0.05734328  0.45895602  0.01378027     1.49480
O123        O  0.00308311  0.49019498  0.00477297    -1.83950
O124        O  0.00104424  0.07300951  0.94751934    -0.74580
O125        O  0.94988841  0.02733624  0.09056877    -0.74400
O126        O  0.91156413  0.45752156  0.95783418    -0.73920
O127        O  0.00087024  0.08124109  0.02184495    -0.74600
O128        O  0.94739748  0.99457444  0.90920533    -0.74200
O129        O  0.91215167  0.47719498  0.06658218    -0.74780
O130        O  0.04194510  0.40341234  0.02462464    -0.74170
O131        O  0.05752502  0.02977937  0.08795959    -0.74930
O132        O  0.96688211  0.40322146  0.02472383    -0.74320
O133        O  0.09596824  0.48008371  0.06453986    -0.74780
O134        O  0.09563492  0.46018686  0.95743186    -0.74690
O135        O  0.05792740  0.99716018  0.90975802    -0.74480
C136        C  0.00066850  0.09452713  0.98211442     0.77310
C137        C  0.91677913  0.50493599  0.09328666     0.77800
C138        C  0.91482830  0.47243627  0.91887986     0.76760
C139        C  0.00441304  0.38586386  0.02680214     0.77130
C140        C  0.09164159  0.50847050  0.09030532     0.78270
C141        C  0.09137062  0.47596555  0.91909497     0.77320
Zn142      Zn  0.00247725  0.26439145  0.06217357     1.49720
Zn143      Zn  0.94771108  0.20817482  0.99409153     1.49360
Zn144      Zn  0.99969322  0.28009484  0.95656679     1.49110
Zn145      Zn  0.05446637  0.20831810  0.99162311     1.49480
O146        O  0.00119600  0.24016802  0.00175725    -1.83950
O147        O  0.94689321  0.24755351  0.09807327    -0.74580
O148        O  0.90656673  0.22901341  0.94547553    -0.74400
O149        O  0.00235839  0.33106429  0.98385705    -0.73920
O150        O  0.91204087  0.20810476  0.05164718    -0.74600
O151        O  0.00444961  0.32316079  0.05824372    -0.74200
O152        O  0.94284731  0.27905751  0.91995505    -0.74780
O153        O  0.09256466  0.22886790  0.94016254    -0.74170
O154        O  0.96304887  0.15318225  0.98204502    -0.74930
O155        O  0.05247176  0.27705357  0.91503724    -0.74320
O156        O  0.03803550  0.15334741  0.97995537    -0.74780
O157        O  0.09251004  0.20744644  0.04815247    -0.74690
O158        O  0.05743969  0.24491408  0.09671114    -0.74480
C159        C  0.91464230  0.22477153  0.08952132     0.77310
C160        C  0.90860937  0.25756446  0.91971617     0.77800
C161        C  0.00402249  0.34452770  0.02347386     0.76760
C162        C  0.08693395  0.25604423  0.91272050     0.77130
C163        C  0.00048812  0.13583229  0.97864001     0.78270
C164        C  0.08967135  0.22254344  0.08700558     0.77320
C165        C  0.20243543  0.20523438  0.14651296    -0.20130
C166        C  0.18961950  0.20916346  0.19185573    -0.06700
C167        C  0.14324942  0.21146408  0.20257345     0.14170
C168        C  0.11121149  0.21376431  0.16763708    -0.20180
C169        C  0.12437619  0.21389113  0.12200670    -0.06700
C170        C  0.17052733  0.20769226  0.11134628     0.14160
C171        C  0.18719956  0.20669437  0.06322674    -0.23530
H172        H  0.23813143  0.20428752  0.13842395     0.15450
H173        H  0.07584718  0.21724644  0.17607908     0.15480
C174        C  0.12799900  0.21423919  0.25102817    -0.23480
H175        H  0.22449380  0.20363615  0.06149032     0.05690
H176        H  0.17805053  0.23306894  0.04563768     0.08910
H177        H  0.17212743  0.18247272  0.04522816     0.08910
H178        H  0.14223909  0.23972220  0.26705283     0.08900
H179        H  0.13969948  0.18924850  0.26997506     0.08900
H180        H  0.09061843  0.21567778  0.25369326     0.05670
C181        C  0.15283340  0.02649311  0.20080212    -0.20130
C182        C  0.19769663  0.02165310  0.18700645    -0.06700
C183        C  0.20773268  0.51903480  0.14047253     0.14170
C184        C  0.17230284  0.51653422  0.10922616    -0.20180
C185        C  0.12722240  0.01706683  0.12357064    -0.06700
C186        C  0.11723840  0.02410519  0.16956222     0.14160
C187        C  0.06927037  0.02577168  0.18651009    -0.23530
H188        H  0.14537957  0.02787884  0.23663442     0.15450
H189        H  0.17977462  0.51243552  0.07371088     0.15480
C190        C  0.25587164  0.51610994  0.12431455    -0.23480
H191        H  0.06785434  0.02946094  0.22375415     0.05690
H192        H  0.05134498  0.49940038  0.17797049     0.08910
H193        H  0.05143104  0.04979873  0.17087199     0.08910
H194        H  0.27206643  0.49055491  0.13810132     0.08900
H195        H  0.27515388  0.04103492  0.13572156     0.08900
H196        H  0.25780114  0.51473159  0.08686421     0.05670
C197        C  0.21855742  0.38594325  0.26485790    -0.20130
C198        C  0.25611501  0.40421878  0.24657293    -0.06700
C199        C  0.29233167  0.38381398  0.22823881     0.14170
C200        C  0.29032498  0.34483453  0.22902641    -0.20180
C201        C  0.25281941  0.32651688  0.24749923    -0.06700
C202        C  0.21649317  0.34700891  0.26566798     0.14160
C203        C  0.17631036  0.32792094  0.28687033    -0.23530
H204        H  0.19111724  0.40227061  0.27891531     0.15450
H205        H  0.31792756  0.32853905  0.21524848     0.15480
C206        C  0.33255095  0.40316686  0.20755445    -0.23480
H207        H  0.15195946  0.34843190  0.30095171     0.05690
H208        H  0.18772773  0.30946784  0.31482631     0.08910
H209        H  0.15821029  0.31096424  0.26120041     0.08910
H210        H  0.34983444  0.42056499  0.23339322     0.08900
H211        H  0.32125592  0.42134093  0.17927852     0.08900
H212        H  0.35742036  0.38281061  0.19406500     0.05670
C213        C  0.39239798  0.21599487  0.33831962    -0.20130
C214        C  0.37825365  0.21724104  0.38362460    -0.06700
C215        C  0.33172774  0.21219168  0.39344576     0.14170
C216        C  0.30048193  0.20956633  0.35765965    -0.20180
C217        C  0.31443580  0.21198015  0.31247304    -0.06700
C218        C  0.36109405  0.21341848  0.30275100     0.14160
C219        C  0.37754254  0.21480004  0.25458981    -0.23530
H220        H  0.42804874  0.21866145  0.33059063     0.15450
H221        H  0.26460047  0.20935953  0.36497396     0.15480
C222        C  0.31418922  0.21250441  0.44124239    -0.23480
H223        H  0.41501229  0.21547127  0.25276889     0.05690
H224        H  0.36451406  0.24019604  0.23739330     0.08910
H225        H  0.36549502  0.18961617  0.23621695     0.08910
H226        H  0.32398764  0.23901273  0.45818727     0.08900
H227        H  0.32813802  0.18836547  0.46024128     0.08900
H228        H  0.27677603  0.21025676  0.44235926     0.05670
C229        C  0.35119801  0.02955819  0.30800040    -0.20130
C230        C  0.30717377  0.01909033  0.31967480    -0.06700
C231        C  0.29672201  0.51131797  0.36526155     0.14170
C232        C  0.33159671  0.50994093  0.39724999    -0.20180
C233        C  0.37661035  0.01638547  0.38467123    -0.06700
C234        C  0.38627611  0.02825868  0.33991643     0.14160
C235        C  0.43375777  0.03653612  0.32437327    -0.23530
H236        H  0.35898441  0.03493496  0.27278537     0.15450
H237        H  0.32393108  0.50217014  0.43182435     0.15480
C238        C  0.24907533  0.50210565  0.37942061    -0.23480
H239        H  0.43505446  0.04331821  0.28775506     0.05690
H240        H  0.45559520  0.01178546  0.33025017     0.08910
H241        H  0.44743972  0.06102268  0.34294681     0.08910
H242        H  0.23708266  0.47640988  0.36212417     0.08900
H243        H  0.22644990  0.52571567  0.37046191     0.08900
H244        H  0.24661927  0.49730740  0.41643003     0.05670
C245        C  0.14216210  0.27566302  0.79915277    -0.20130
C246        C  0.18663077  0.26473145  0.80823326    -0.06700
C247        C  0.19957864  0.25640536  0.85299901     0.14170
C248        C  0.16667149  0.25575243  0.88704382    -0.20180
C249        C  0.12111491  0.26313937  0.87719419    -0.06700
C250        C  0.10904691  0.27492282  0.83299346     0.14160
C251        C  0.06093112  0.28381162  0.82006094    -0.23530
H252        H  0.13245341  0.28133571  0.76446910     0.15450
H253        H  0.17621201  0.24776313  0.92108896     0.15480
C254        C  0.24754786  0.24575659  0.86410580    -0.23480
H255        H  0.05764931  0.29037795  0.78350404     0.05690
H256        H  0.04903661  0.30864312  0.83909460     0.08910
H257        H  0.03879361  0.25945462  0.82739578     0.08910
H258        H  0.27060455  0.26891572  0.85438579     0.08900
H259        H  0.25717063  0.22010730  0.84536989     0.08900
H260        H  0.25205986  0.24019728  0.90077282     0.05670
C261        C  0.35438075  0.24665940  0.70398980    -0.20130
C262        C  0.31350875  0.26442997  0.69302155    -0.06700
C263        C  0.31003099  0.28479640  0.65236418     0.14170
C264        C  0.34583003  0.28361880  0.62130419    -0.20180
C265        C  0.38440228  0.26213406  0.63024419    -0.06700
C266        C  0.38971028  0.24478700  0.67265113     0.14160
C267        C  0.43142142  0.22242404  0.68362974    -0.23530
H268        H  0.35668527  0.23077406  0.73513327     0.15450
H269        H  0.34265647  0.29766272  0.58897963     0.15480
C270        C  0.26740993  0.30558729  0.64067844    -0.23480
H271        H  0.42985802  0.21027158  0.71815269     0.05690
H272        H  0.46168712  0.24073416  0.68166218     0.08910
H273        H  0.43506410  0.19910473  0.65913443     0.08910
H274        H  0.26049353  0.32686752  0.66708723     0.08900
H275        H  0.23850292  0.28582576  0.63877596     0.08900
H276        H  0.27027187  0.32015566  0.60763651     0.05670
C277        C  0.15034857  0.44780560  0.81065518    -0.20130
C278        C  0.18994470  0.46925876  0.81361078    -0.06700
C279        C  0.19968638  0.98856757  0.85430031     0.14170
C280        C  0.16792063  0.98848569  0.88941556    -0.20180
C281        C  0.12650816  0.46998074  0.88459911    -0.06700
C282        C  0.11838943  0.44801230  0.84578336     0.14160
C283        C  0.07544032  0.42574392  0.84094445    -0.23530
H284        H  0.14262512  0.43348841  0.77929312     0.15450
H285        H  0.17442293  0.00478626  0.91964110     0.15480
C286        C  0.24181392  0.01182434  0.86024242    -0.23480
H287        H  0.07463431  0.40979593  0.80874625     0.05690
H288        H  0.04583039  0.44474915  0.84150053     0.08910
H289        H  0.07266944  0.40548458  0.86927498     0.08910
H290        H  0.23242969  0.04166416  0.86462886     0.08900
H291        H  0.26514538  0.00965835  0.83107476     0.08900
H292        H  0.26036644  0.00225397  0.89075344     0.05670
C293        C  0.30885036  0.44560636  0.65356987    -0.20130
C294        C  0.31193264  0.46727534  0.69277559    -0.06700
C295        C  0.35254594  0.48671058  0.70190011     0.14170
C296        C  0.38692687  0.98740659  0.66936863    -0.20180
C297        C  0.38207648  0.46918575  0.62747347    -0.06700
C298        C  0.34328534  0.44606668  0.62078102     0.14160
C299        C  0.33626189  0.42295035  0.57871989    -0.23530
H300        H  0.27747677  0.43099306  0.64663473     0.15450
H301        H  0.41682285  0.00401683  0.67618535     0.15480
C302        C  0.35906843  0.00940013  0.74435392    -0.23480
H303        H  0.30487544  0.40593974  0.58055842     0.05690
H304        H  0.36489447  0.40326020  0.57436364     0.08910
H305        H  0.33314651  0.44143534  0.54873133     0.08910
H306        H  0.33035823  0.00659361  0.76816602     0.08900
H307        H  0.36300335  0.03941144  0.73547232     0.08900
H308        H  0.38998625  0.99979708  0.76216386     0.05670
C309        C  0.25688928  0.09267863  0.74035294    -0.20130
C310        C  0.22043615  0.07521527  0.71882825    -0.06700
C311        C  0.18546421  0.09658342  0.69958522     0.14170
C312        C  0.18829058  0.13571100  0.70166213    -0.20180
C313        C  0.22523978  0.15304323  0.72276646    -0.06700
C314        C  0.25967820  0.13139455  0.74282721     0.14160
C315        C  0.29874151  0.14891028  0.76800325    -0.23530
H316        H  0.28297882  0.07572177  0.75595850     0.15450
H317        H  0.16181705  0.15278008  0.68701740     0.15480
C318        C  0.14576229  0.07811010  0.67695594    -0.23480
H319        H  0.32114837  0.12747639  0.78336119     0.05690
H320        H  0.28581201  0.16694153  0.79561288     0.08910
H321        H  0.31959227  0.16590522  0.74460615     0.08910
H322        H  0.12749129  0.06030353  0.70167755     0.08900
H323        H  0.15775862  0.06043708  0.64857288     0.08900
H324        H  0.12164679  0.09903113  0.66326863     0.05670
C325        C  0.70521331  0.45903460  0.64575628    -0.20130
C326        C  0.69222966  0.46010780  0.69130633    -0.06700
C327        C  0.64580171  0.46051343  0.70211044     0.14170
C328        C  0.61364683  0.46339074  0.66732330    -0.20180
C329        C  0.62680718  0.46602379  0.62181737    -0.06700
C330        C  0.67319874  0.46219349  0.61079869     0.14160
C331        C  0.68975999  0.46459888  0.56270427    -0.23530
H332        H  0.74092076  0.45971606  0.63765903     0.15450
H333        H  0.57812403  0.46527812  0.67585845     0.15480
C334        C  0.63049617  0.46060776  0.75065301    -0.23480
H335        H  0.72719768  0.46333230  0.56075081     0.05690
H336        H  0.67880198  0.99142523  0.54727760     0.08910
H337        H  0.67621647  0.44081372  0.54276201     0.08910
H338        H  0.64359688  0.48579633  0.76828497     0.08900
H339        H  0.64336497  0.43519214  0.76794506     0.08900
H340        H  0.59307662  0.46073565  0.75337267     0.05670
C341        C  0.89403414  0.46197610  0.83832776    -0.20130
C342        C  0.88027250  0.46374480  0.88372356    -0.06700
C343        C  0.83377343  0.45897499  0.89398143     0.14170
C344        C  0.80222769  0.45629146  0.85850042    -0.20180
C345        C  0.81579310  0.45850713  0.81319719    -0.06700
C346        C  0.86237504  0.45936007  0.80305655     0.14160
C347        C  0.87835031  0.46025264  0.75473076    -0.23530
H348        H  0.92963580  0.46435651  0.83027346     0.15450
H349        H  0.76640894  0.45646331  0.86612395     0.15480
C350        C  0.81651878  0.45974948  0.94188907    -0.23480
H351        H  0.91580331  0.46059496  0.75253559     0.05690
H352        H  0.86543750  0.48562561  0.73739376     0.08910
H353        H  0.86581127  0.43503197  0.73675985     0.08910
H354        H  0.82657190  0.98634886  0.95847350     0.08900
H355        H  0.83038554  0.43568149  0.96108073     0.08900
H356        H  0.77909891  0.45769360  0.94327204     0.05670
C357        C  0.79321184  0.25976804  0.86302991    -0.20130
C358        C  0.80550149  0.27049962  0.81909397    -0.06700
C359        C  0.84938996  0.28424031  0.81117919     0.14170
C360        C  0.88170641  0.28211282  0.84584592    -0.20180
C361        C  0.87120193  0.26563089  0.88776868    -0.06700
C362        C  0.82565321  0.25637809  0.89732187     0.14160
C363        C  0.81092423  0.24204233  0.94292534    -0.23530
H364        H  0.75923575  0.24947213  0.86890202     0.15450
H365        H  0.91614409  0.29066921  0.83889074     0.15480
C366        C  0.86297338  0.29826293  0.76514845    -0.23480
H367        H  0.77364054  0.23891372  0.94496592     0.05690
H368        H  0.82154529  0.26205092  0.96957702     0.08910
H369        H  0.82577602  0.21411546  0.94959205     0.08910
H370        H  0.84114803  0.32219628  0.75546351     0.08900
H371        H  0.85920532  0.27564106  0.73972466     0.08900
H372        H  0.89865425  0.30790576  0.76463268     0.05670
C373        C  0.66210964  0.28170840  0.69231075    -0.20130
C374        C  0.70470554  0.26866628  0.67922135    -0.06700
C375        C  0.71250416  0.25965372  0.63337320     0.14170
C376        C  0.67615108  0.25876294  0.60323630    -0.20180
C377        C  0.63226613  0.26753010  0.61746011    -0.06700
C378        C  0.62557399  0.28136117  0.66191751     0.14160
C379        C  0.57965992  0.29296865  0.67880622    -0.23530
H380        H  0.65630923  0.28845077  0.72754810     0.15450
H381        H  0.68190914  0.24963989  0.56877162     0.15480
C382        C  0.75832943  0.24800998  0.61628803    -0.23480
H383        H  0.58062567  0.30138961  0.71492611     0.05690
H384        H  0.55547315  0.26935106  0.67552366     0.08910
H385        H  0.56733872  0.31734627  0.65911804     0.08910
H386        H  0.75701317  0.21851305  0.60460114     0.08900
H387        H  0.78492539  0.25055259  0.64257612     0.08900
H388        H  0.76822517  0.26618652  0.58750898     0.05670
C389        C  0.74108123  0.13532702  0.78472698    -0.20130
C390        C  0.76118352  0.15300640  0.74754609    -0.06700
C391        C  0.77984230  0.13167847  0.71204531     0.14170
C392        C  0.77703846  0.09279875  0.71434011    -0.20180
C393        C  0.75699161  0.07525692  0.75152434    -0.06700
C394        C  0.73876077  0.09644140  0.78715974     0.14160
C395        C  0.71598346  0.07810292  0.82698588    -0.23530
H396        H  0.72665513  0.15210622  0.81158979     0.15450
H397        H  0.79114879  0.07598905  0.68732313     0.15480
C398        C  0.80380222  0.14877470  0.67208415    -0.23480
H399        H  0.70243964  0.09908382  0.85107475     0.05690
H400        H  0.74048368  0.06032017  0.84552411     0.08910
H401        H  0.68742278  0.06051574  0.81502984     0.08910
H402        H  0.80682275  0.17959585  0.67423627     0.08900
H403        H  0.83858481  0.13732658  0.66994819     0.08900
H404        H  0.78531790  0.14164192  0.64056354     0.05670
C405        C  0.80073435  0.20789305  0.14678439    -0.20130
C406        C  0.81177485  0.21486611  0.19201720    -0.06700
C407        C  0.85747894  0.22005061  0.20411688     0.14170
C408        C  0.89067215  0.22121502  0.17020888    -0.20180
C409        C  0.87916846  0.21773967  0.12426053    -0.06700
C410        C  0.83359607  0.20954183  0.11262986     0.14160
C411        C  0.81823718  0.20561695  0.06423795    -0.23530
H412        H  0.76542220  0.20488814  0.13765443     0.15450
H413        H  0.92551494  0.22652716  0.17952806     0.15480
C414        C  0.87066561  0.22666762  0.25265583    -0.23480
H415        H  0.78110391  0.20162676  0.06162047     0.05690
H416        H  0.83441469  0.18088188  0.04848619     0.08910
H417        H  0.82705941  0.23129073  0.04507881     0.08910
H418        H  0.85969546  0.20251854  0.27356938     0.08900
H419        H  0.85430640  0.25247185  0.26550812     0.08900
H420        H  0.90778555  0.22995043  0.25654155     0.05670
C421        C  0.66518072  0.21420868  0.38926454    -0.20130
C422        C  0.61905524  0.21639165  0.37822473    -0.06700
C423        C  0.60568322  0.21160397  0.33261852     0.14170
C424        C  0.63890242  0.20861476  0.29896219    -0.20180
C425        C  0.68500668  0.21137669  0.30955497    -0.06700
C426        C  0.69832613  0.21239959  0.35536143     0.14160
C427        C  0.74754241  0.21473212  0.36812179    -0.23530
H428        H  0.67549660  0.21680288  0.42428783     0.15450
H429        H  0.62882002  0.20826207  0.26371866     0.15480
C430        C  0.55660716  0.21036461  0.31895777    -0.23480
H431        H  0.75227008  0.21540330  0.40535878     0.05690
H432        H  0.76285619  0.24050737  0.35379811     0.08910
H433        H  0.76564409  0.18996352  0.35466132     0.08910
H434        H  0.54033754  0.23776888  0.32536590     0.08900
H435        H  0.53884649  0.18816739  0.33830684     0.08900
H436        H  0.55255231  0.20410825  0.28240528     0.05670
C437        C  0.84383269  0.03074584  0.11916756    -0.20130
C438        C  0.88349121  0.01101475  0.12910250    -0.06700
C439        C  0.89054175  0.49658118  0.17283697     0.14170
C440        C  0.85591763  0.49947774  0.20482093    -0.20180
C441        C  0.81421139  0.01564088  0.19342210    -0.06700
C442        C  0.80885024  0.03309316  0.15101768     0.14160
C443        C  0.76514204  0.05196018  0.13856610    -0.23530
H444        H  0.83936734  0.04265835  0.08576415     0.15450
H445        H  0.85955748  0.48561721  0.23723134     0.15480
C446        C  0.93346934  0.47622611  0.18479745    -0.23480
H447        H  0.76655762  0.06430584  0.10414033     0.05690
H448        H  0.75808252  0.07476499  0.16300477     0.08910
H449        H  0.73698414  0.03142245  0.13941415     0.08910
H450        H  0.96279552  0.49528501  0.18055280     0.08900
H451        H  0.93770343  0.45161602  0.16232572     0.08900
H452        H  0.93318521  0.46617435  0.22032438     0.05670
C453        C  0.64666902  0.03322916  0.30346833    -0.20130
C454        C  0.69061089  0.02073262  0.31207306    -0.06700
C455        C  0.70293950  0.51037315  0.35643902     0.14170
C456        C  0.66974999  0.50884585  0.39014201    -0.20180
C457        C  0.62450133  0.01739664  0.38038971    -0.06700
C458        C  0.61322408  0.03157251  0.33697224     0.14160
C459        C  0.56549195  0.04193478  0.32422839    -0.23530
H460        H  0.63737272  0.04043906  0.26909063     0.15450
H461        H  0.67875869  0.49914041  0.42367718     0.15480
C462        C  0.75044282  0.49808427  0.36717963    -0.23480
H463        H  0.56276022  0.05035233  0.28818466     0.05690
H464        H  0.55396085  0.06597038  0.34490435     0.08910
H465        H  0.54273761  0.51762530  0.32955477     0.08910
H466        H  0.77438725  0.02098738  0.35883161     0.08900
H467        H  0.75930838  0.47289800  0.34716476     0.08900
H468        H  0.75452045  0.49106950  0.40353163     0.05670
C469        C  0.71583106  0.34527701  0.20013737    -0.20130
C470        C  0.73253341  0.32807858  0.23928011    -0.06700
C471        C  0.74695279  0.34967771  0.27643053     0.14170
C472        C  0.74395289  0.38843225  0.27365788    -0.20180
C473        C  0.72745368  0.40575494  0.23454562    -0.06700
C474        C  0.71317944  0.38426081  0.19730264     0.14160
C475        C  0.69483382  0.40237050  0.15516403    -0.23530
H476        H  0.70506284  0.32814387  0.17187788     0.15450
H477        H  0.75558746  0.40546923  0.30168946     0.15480
C478        C  0.76695679  0.33203874  0.31825536    -0.23480
H479        H  0.68413791  0.38122858  0.12980997     0.05690
H480        H  0.72107933  0.42031028  0.13943194     0.08910
H481        H  0.66505653  0.41977889  0.16383673     0.08910
H482        H  0.79664351  0.31475651  0.30889608     0.08900
H483        H  0.74145615  0.31415941  0.33523641     0.08900
H484        H  0.77832682  0.35342870  0.34301057     0.05670
C485        C  0.71496943  0.50400850  0.27388199     0.03300
C486        C  0.70428092  0.96670443  0.26463846    -0.12850
C487        C  0.72911418  0.94650697  0.23334336     0.00800
C488        C  0.76327175  0.96394472  0.20915726    -0.11370
C489        C  0.77442005  0.50131842  0.21757096     0.03300
C490        C  0.75036618  0.52178653  0.25034747    -0.10790
H491        H  0.67872207  0.95243536  0.28453078     0.08890
H492        H  0.78360693  0.94757260  0.18597423     0.06420
H493        H  0.75984485  0.55029249  0.25830861     0.06270
C494        C  0.71427102  0.72882470  0.27510952     0.03300
C495        C  0.70809564  0.76722873  0.26924308    -0.12850
C496        C  0.73589556  0.78744978  0.24057300     0.00800
C497        C  0.76913952  0.76944402  0.21585531    -0.11370
C498        C  0.77580905  0.73092405  0.22048421     0.03300
C499        C  0.74849708  0.71013507  0.25065833    -0.10790
H500        H  0.68240229  0.78182314  0.28851739     0.08890
H501        H  0.79067492  0.78565918  0.19353661     0.06420
H502        H  0.75380587  0.68040864  0.25507856     0.06270
C503        C  0.78026096  0.75264105  0.78196351     0.03300
C504        C  0.78309434  0.71364239  0.78010523    -0.12850
C505        C  0.76079782  0.69378271  0.74664598     0.00800
C506        C  0.73563255  0.71257966  0.71431247    -0.11370
C507        C  0.73335337  0.75166913  0.71441064     0.03300
C508        C  0.75528510  0.77213902  0.74885443    -0.10790
H509        H  0.80264123  0.69851080  0.80520588     0.08890
H510        H  0.71725600  0.69657174  0.68911492     0.06420
H511        H  0.75295629  0.80234241  0.74986315     0.06270
C512        C  0.72487025  0.97665760  0.72337466     0.03300
C513        C  0.72638062  0.51571127  0.72355592    -0.12850
C514        C  0.75552446  0.53459299  0.75223810     0.00800
C515        C  0.78402883  0.51494006  0.78076923    -0.11370
C516        C  0.78366720  0.97587421  0.78125372     0.03300
C517        C  0.75372252  0.95614700  0.75245302    -0.10790
H518        H  0.70445563  0.53159295  0.70125586     0.08890
H519        H  0.80701281  0.53022591  0.80264218     0.06420
H520        H  0.75300695  0.92587849  0.75254971     0.06270
C521        C  0.26927364  0.98068894  0.71294229     0.03300
C522        C  0.25439156  0.51556919  0.69771854    -0.12850
C523        C  0.22006124  0.53440136  0.72013906     0.00800
C524        C  0.19710578  0.51694189  0.75521830    -0.11370
C525        C  0.21086825  0.98184221  0.77093592     0.03300
C526        C  0.24743528  0.96338178  0.74990299    -0.10790
H527        H  0.27328753  0.53014866  0.67165991     0.08890
H528        H  0.17177978  0.53254268  0.77380354     0.06420
H529        H  0.26006699  0.93727117  0.76344119     0.06270
C530        C  0.27259169  0.74934747  0.71459070     0.03300
C531        C  0.26081853  0.71282701  0.70246066    -0.12850
C532        C  0.22720931  0.69377719  0.72569442     0.00800
C533        C  0.20226659  0.71208139  0.75860485    -0.11370
C534        C  0.21247225  0.74906101  0.77034056     0.03300
C535        C  0.24830325  0.76794222  0.74875053    -0.10790
H536        H  0.28062226  0.69798416  0.67738103     0.08890
H537        H  0.17675981  0.69672234  0.77732391     0.06420
H538        H  0.25775882  0.79593319  0.75906395     0.06270
Zn539      Zn  0.55587844  0.96009149  0.49219479     1.49720
Zn540      Zn  0.50179926  0.53199679  0.45794416     1.49360
Zn541      Zn  0.44868774  0.96056621  0.49529598     1.49110
Zn542      Zn  0.50433229  0.51637321  0.56318795     1.49480
O543        O  0.50273438  0.99205007  0.50285160    -1.83950
O544        O  0.59455899  0.98100879  0.44113500    -0.74580
O545        O  0.44709419  0.52971604  0.41921740    -0.74400
O546        O  0.46395948  0.90545543  0.48367063    -0.73920
O547        O  0.55570649  0.53051736  0.41816417    -0.74600
O548        O  0.53893879  0.90516455  0.48032889    -0.74200
O549        O  0.40829870  0.98116823  0.44541019    -0.74780
O550        O  0.44952079  0.49892842  0.59967323    -0.74170
O551        O  0.50160546  0.58283328  0.48498511    -0.74930
O552        O  0.41321689  0.96062696  0.55327122    -0.74320
O553        O  0.50510196  0.57522258  0.55932786    -0.74780
O554        O  0.55986531  0.49727517  0.59715814    -0.74690
O555        O  0.59404262  0.95914625  0.54860557    -0.74480
C556        C  0.58979614  0.00924129  0.41510251     0.77310
C557        C  0.41257319  0.00868209  0.41819053     0.77800
C558        C  0.50119649  0.88787548  0.47964904     0.76760
C559        C  0.41686553  0.97640161  0.59163248     0.77130
C560        C  0.50333122  0.59644912  0.52447430     0.78270
C561        C  0.59176687  0.97463932  0.58727144     0.77320
Zn562      Zn  0.50057902  0.76647100  0.44405484     1.49720
Zn563      Zn  0.55604043  0.71018353  0.51135957     1.49360
Zn564      Zn  0.50336202  0.78182550  0.54951081     1.49110
Zn565      Zn  0.44885678  0.70991079  0.51376871     1.49480
O566        O  0.50212075  0.74196532  0.50411796    -1.83950
O567        O  0.55414045  0.74786399  0.40733355    -0.74580
O568        O  0.59733428  0.73156387  0.55948241    -0.74400
O569        O  0.50100823  0.83290220  0.52236887    -0.73920
O570        O  0.59107936  0.70893969  0.45294622    -0.74600
O571        O  0.50120824  0.82527074  0.44791985    -0.74200
O572        O  0.56009405  0.78073039  0.58589304    -0.74780
O573        O  0.41211086  0.72929961  0.56666533    -0.74170
O574        O  0.54070323  0.65533058  0.52508542    -0.74930
O575        O  0.45126734  0.77830814  0.59197035    -0.74320
O576        O  0.46567358  0.65501668  0.52440673    -0.74780
O577        O  0.40980012  0.70977925  0.45757931    -0.74690
O578        O  0.44486276  0.74815474  0.40987652    -0.74480
C579        C  0.58614952  0.72472374  0.41466408     0.77310
C580        C  0.59448978  0.75958603  0.58602435     0.77800
C581        C  0.50098351  0.84651824  0.48276804     0.76760
C582        C  0.41760036  0.75637324  0.59421106     0.77130
C583        C  0.50323997  0.63776976  0.52733201     0.78270
C584        C  0.41261375  0.72558562  0.41907979     0.77320
C585        C  0.22828111  0.50374772  0.21956048     0.03300
C586        C  0.25284662  0.52307144  0.25310158    -0.12850
C587        C  0.27936886  0.50236201  0.28381169     0.00800
C588        C  0.28144070  0.96341950  0.28029480    -0.11370
C589        C  0.25661492  0.94484495  0.24755567     0.03300
C590        C  0.22996609  0.96472726  0.21756773    -0.10790
H591        H  0.25118770  0.55325845  0.25538519     0.08890
H592        H  0.30194300  0.94739509  0.30376197     0.06420
H593        H  0.21008399  0.94968497  0.19262633     0.06270
C594        C  0.28211701  0.72821930  0.27982906     0.03300
C595        C  0.28193495  0.76725434  0.27772242    -0.12850
C596        C  0.25295289  0.78582736  0.24859073     0.00800
C597        C  0.22405774  0.76585552  0.22075128    -0.11370
C598        C  0.22280369  0.72683079  0.22247150     0.03300
C599        C  0.25208231  0.70742727  0.25222184    -0.10790
H600        H  0.30443873  0.78337042  0.29922054     0.08890
H601        H  0.20193381  0.78087263  0.19778281     0.06420
H602        H  0.25153681  0.67718517  0.25381219     0.06270
Zn603      Zn  0.00213324  0.51416864  0.94432461     1.49720
Zn604      Zn  0.00266993  0.53050191  0.04944863     1.49360
Zn605      Zn  0.94992914  0.95798914  0.01423905     1.49110
Zn606      Zn  0.05733948  0.95895684  0.01377894     1.49480
O607        O  0.00307850  0.99019502  0.00477267    -1.83950
O608        O  0.00104987  0.57300951  0.94751992    -0.74580
O609        O  0.94989299  0.52733526  0.09056969    -0.74400
O610        O  0.91155898  0.95752021  0.95783572    -0.73920
O611        O  0.00087282  0.58124099  0.02184555    -0.74600
O612        O  0.94740431  0.49457494  0.90920418    -0.74200
O613        O  0.91214824  0.97719459  0.06658362    -0.74780
O614        O  0.04194235  0.90341301  0.02462290    -0.74170
O615        O  0.05752977  0.52977980  0.08795956    -0.74930
O616        O  0.96687936  0.90322103  0.02472515    -0.74320
O617        O  0.09596451  0.98008424  0.06453877    -0.74780
O618        O  0.09563022  0.96018846  0.95742991    -0.74690
O619        O  0.05793466  0.49716029  0.90975984    -0.74480
C620        C  0.00067207  0.59452708  0.98211502     0.77310
C621        C  0.91677520  0.00493642  0.09328696     0.77800
C622        C  0.91482220  0.97243516  0.91888142     0.76760
C623        C  0.00441077  0.88586398  0.02680195     0.77130
C624        C  0.09163716  0.00847043  0.09030508     0.78270
C625        C  0.09136429  0.97596634  0.91909271     0.77320
Zn626      Zn  0.00247752  0.76439152  0.06217363     1.49720
Zn627      Zn  0.94771219  0.70817423  0.99409172     1.49360
Zn628      Zn  0.99969350  0.78009479  0.95656679     1.49110
Zn629      Zn  0.05446746  0.70831870  0.99162309     1.49480
O630        O  0.00119662  0.74016804  0.00175733    -1.83950
O631        O  0.94689364  0.74755319  0.09807326    -0.74580
O632        O  0.90656772  0.72901227  0.94547532    -0.74400
O633        O  0.00235771  0.83106432  0.98385694    -0.73920
O634        O  0.91204160  0.70810421  0.05164723    -0.74600
O635        O  0.00444855  0.82316092  0.05824364    -0.74200
O636        O  0.94284766  0.77905683  0.91995513    -0.74780
O637        O  0.09256551  0.72886874  0.94016262    -0.74170
O638        O  0.96305116  0.65318169  0.98204600    -0.74930
O639        O  0.05247203  0.77705398  0.91503710    -0.74320
O640        O  0.03803776  0.65334788  0.97995525    -0.74780
O641        O  0.09251093  0.70744725  0.04815240    -0.74690
O642        O  0.05744024  0.74491451  0.09671128    -0.74480
C643        C  0.91464285  0.72477110  0.08952132     0.77310
C644        C  0.90861004  0.75756344  0.91971608     0.77800
C645        C  0.00402116  0.84452780  0.02347374     0.76760
C646        C  0.08693445  0.75604490  0.91272043     0.77130
C647        C  0.00049074  0.63583223  0.97864056     0.78270
C648        C  0.08967208  0.72254406  0.08700559     0.77320
C649        C  0.20243609  0.70523454  0.14651291    -0.20130
C650        C  0.18962000  0.70916282  0.19185573    -0.06700
C651        C  0.14324986  0.71146301  0.20257337     0.14170
C652        C  0.11121204  0.71376387  0.16763696    -0.20180
C653        C  0.12437690  0.71389155  0.12200664    -0.06700
C654        C  0.17052808  0.70769293  0.11134620     0.14160
C655        C  0.18720045  0.70669582  0.06322668    -0.23530
H656        H  0.23813212  0.70428797  0.13842398     0.15450
H657        H  0.07584768  0.71724570  0.17607893     0.15480
C658        C  0.12799926  0.71423703  0.25102812    -0.23480
H659        H  0.22449471  0.70363777  0.06149029     0.05690
H660        H  0.17805131  0.73307061  0.04563817     0.08910
H661        H  0.17212852  0.68247437  0.04522753     0.08910
H662        H  0.14223917  0.73971973  0.26705366     0.08900
H663        H  0.13969980  0.68924597  0.26997426     0.08900
H664        H  0.09061868  0.71567544  0.25369313     0.05670
C665        C  0.15284026  0.52649306  0.20080092    -0.20130
C666        C  0.19770323  0.52165381  0.18700396    -0.06700
C667        C  0.20772726  0.01903335  0.14047533     0.14170
C668        C  0.17229820  0.01653296  0.10922803    -0.20180
C669        C  0.12722744  0.51706723  0.12357002    -0.06700
C670        C  0.11724447  0.52410498  0.16956192     0.14160
C671        C  0.06927682  0.52577070  0.18651094    -0.23530
H672        H  0.14538734  0.52787826  0.23663344     0.15450
H673        H  0.17977086  0.01243379  0.07371301     0.15480
C674        C  0.25586658  0.01610760  0.12431868    -0.23480
H675        H  0.06786161  0.52945972  0.22375507     0.05690
H676        H  0.05133823  0.99940156  0.17796947     0.08910
H677        H  0.05143663  0.54979757  0.17087341     0.08910
H678        H  0.27206048  0.99055250  0.13810631     0.08900
H679        H  0.27515872  0.54103739  0.13571735     0.08900
H680        H  0.25779705  0.01472879  0.08686842     0.05670
C681        C  0.21855128  0.88594165  0.26486175    -0.20130
C682        C  0.25610815  0.90421852  0.24657728    -0.06700
C683        C  0.29232577  0.88381505  0.22824289     0.14170
C684        C  0.29032085  0.84483554  0.22902980    -0.20180
C685        C  0.25281602  0.82651654  0.24750213    -0.06700
C686        C  0.21648875  0.84700723  0.26567107     0.14160
C687        C  0.17630661  0.82791778  0.28687273    -0.23530
H688        H  0.19111032  0.90226801  0.27891933     0.15450
H689        H  0.31792417  0.82854108  0.21525161     0.15480
C690        C  0.33254425  0.90316940  0.20755895    -0.23480
H691        H  0.15195479  0.84842782  0.30095447     0.05690
H692        H  0.18772458  0.80946453  0.31482833     0.08910
H693        H  0.15820737  0.81096103  0.26120230     0.08910
H694        H  0.34982692  0.92056775  0.23339806     0.08900
H695        H  0.32124847  0.92134347  0.17928332     0.08900
H696        H  0.35741459  0.88281408  0.19406919     0.05670
C697        C  0.39239837  0.71599472  0.33831956    -0.20130
C698        C  0.37825421  0.71724042  0.38362463    -0.06700
C699        C  0.33172835  0.71219093  0.39344589     0.14170
C700        C  0.30048242  0.70956577  0.35765988    -0.20180
C701        C  0.31443610  0.71197999  0.31247323    -0.06700
C702        C  0.36109430  0.71341862  0.30275102     0.14160
C703        C  0.37754258  0.71480077  0.25458979    -0.23530
H704        H  0.42804908  0.71866150  0.33059046     0.15450
H705        H  0.26460099  0.70935880  0.36497431     0.15480
C706        C  0.31419000  0.71250334  0.44124259    -0.23480
H707        H  0.41501231  0.71547221  0.25276871     0.05690
H708        H  0.36451383  0.74019690  0.23739375     0.08910
H709        H  0.36549515  0.68961705  0.23621657     0.08910
H710        H  0.32398840  0.73901158  0.45818766     0.08900
H711        H  0.32813893  0.68836432  0.46024123     0.08900
H712        H  0.27677681  0.71025562  0.44235957     0.05670
C713        C  0.35120679  0.52955763  0.30799713    -0.20130
C714        C  0.30718219  0.51909010  0.31967054    -0.06700
C715        C  0.29671483  0.01131789  0.36526603     0.14170
C716        C  0.33159039  0.00994064  0.39725352    -0.20180
C717        C  0.37661701  0.51638555  0.38466881    -0.06700
C718        C  0.38628403  0.52825826  0.33991408     0.14160
C719        C  0.43376616  0.53653526  0.32437201    -0.23530
H720        H  0.35899412  0.53493410  0.27278223     0.15450
H721        H  0.32392571  0.00216955  0.43182800     0.15480
C722        C  0.24906853  0.00210549  0.37942630    -0.23480
H723        H  0.43506385  0.54331699  0.28775374     0.05690
H724        H  0.45560316  0.51178450  0.33024981     0.08910
H725        H  0.44744787  0.56102192  0.34294555     0.08910
H726        H  0.23707536  0.97640981  0.36212998     0.08900
H727        H  0.22644287  0.02571556  0.37046841     0.08900
H728        H  0.24661347  0.99730702  0.41643574     0.05670
C729        C  0.14216193  0.77566256  0.79915215    -0.20130
C730        C  0.18663064  0.76473110  0.80823259    -0.06700
C731        C  0.19957880  0.75640564  0.85299842     0.14170
C732        C  0.16667187  0.75575319  0.88704344    -0.20180
C733        C  0.12111522  0.76313996  0.87719393    -0.06700
C734        C  0.10904695  0.77492284  0.83299306     0.14160
C735        C  0.06093108  0.78381147  0.82006068    -0.23530
H736        H  0.13245304  0.78133479  0.76446842     0.15450
H737        H  0.17621259  0.74776431  0.92108867     0.15480
C738        C  0.24754808  0.74575700  0.86410513    -0.23480
H739        H  0.05764905  0.79037741  0.78350370     0.05690
H740        H  0.04903666  0.80864315  0.83909404     0.08910
H741        H  0.03879364  0.75945453  0.82739601     0.08910
H742        H  0.27060473  0.76891598  0.85438452     0.08900
H743        H  0.25717072  0.72010745  0.84536969     0.08900
H744        H  0.25206031  0.74019819  0.90077224     0.05670
C745        C  0.35438057  0.74665806  0.70398939    -0.20130
C746        C  0.31350862  0.76442868  0.69302105    -0.06700
C747        C  0.31003099  0.78479518  0.65236372     0.14170
C748        C  0.34583013  0.78361762  0.62130386    -0.20180
C749        C  0.38440233  0.76213284  0.63024393    -0.06700
C750        C  0.38971019  0.74478569  0.67265083     0.14160
C751        C  0.43142131  0.72242275  0.68362955    -0.23530
H752        H  0.35668500  0.73077274  0.73513286     0.15450
H753        H  0.34265671  0.79766163  0.58897934     0.15480
C754        C  0.26740999  0.80558613  0.64067791    -0.23480
H755        H  0.42985780  0.71027023  0.71815247     0.05690
H756        H  0.46168700  0.74073289  0.68166214     0.08910
H757        H  0.43506411  0.69910349  0.65913420     0.08910
H758        H  0.26049356  0.82686634  0.66708673     0.08900
H759        H  0.23850296  0.78582464  0.63877531     0.08900
H760        H  0.27027205  0.82015455  0.60763603     0.05670
C761        C  0.15033996  0.94780870  0.81065066    -0.20130
C762        C  0.18993776  0.96925961  0.81360772    -0.06700
C763        C  0.19969217  0.48856865  0.85430231     0.14170
C764        C  0.16792637  0.48848687  0.88941751    -0.20180
C765        C  0.12650112  0.96998175  0.88459603    -0.06700
C766        C  0.11838073  0.94801555  0.84577874     0.14160
C767        C  0.07543001  0.92574952  0.84093829    -0.23530
H768        H  0.14261559  0.93349315  0.77928773     0.15450
H769        H  0.17442751  0.50478907  0.91964202     0.15480
C770        C  0.24181834  0.51182734  0.86024309    -0.23480
H771        H  0.07462296  0.90980293  0.80873910     0.05690
H772        H  0.04582145  0.94475618  0.84149538     0.08910
H773        H  0.07265752  0.90548912  0.86926755     0.08910
H774        H  0.23243239  0.54166697  0.86462772     0.08900
H775        H  0.26514994  0.50966105  0.83107555     0.08900
H776        H  0.26037140  0.50225896  0.89075469     0.05670
C777        C  0.30884680  0.94560579  0.65357024    -0.20130
C778        C  0.31192904  0.96727488  0.69277587    -0.06700
C779        C  0.35254254  0.98670976  0.70190063     0.14170
C780        C  0.38693018  0.48740753  0.66936802    -0.20180
C781        C  0.38207310  0.96918495  0.62747401    -0.06700
C782        C  0.34328192  0.94606593  0.62078153     0.14160
C783        C  0.33625851  0.92294953  0.57872044    -0.23530
H784        H  0.27747312  0.93099267  0.64663497     0.15450
H785        H  0.41682604  0.50401793  0.67618463     0.15480
C786        C  0.35907176  0.50940114  0.74435327    -0.23480
H787        H  0.30487200  0.90593899  0.58055893     0.05690
H788        H  0.36489104  0.90325932  0.57436432     0.08910
H789        H  0.33314326  0.94143447  0.54873182     0.08910
H790        H  0.33036171  0.50659453  0.76816552     0.08900
H791        H  0.36300635  0.53941245  0.73547149     0.08900
H792        H  0.38998975  0.49979837  0.76216313     0.05670
C793        C  0.25689042  0.59267783  0.74035413    -0.20130
C794        C  0.22043760  0.57521403  0.71882943    -0.06700
C795        C  0.18546528  0.59658176  0.69958641     0.14170
C796        C  0.18829106  0.63570938  0.70166315    -0.20180
C797        C  0.22524004  0.65304206  0.72276735    -0.06700
C798        C  0.25967873  0.63139379  0.74282827     0.14160
C799        C  0.29874179  0.64890996  0.76800425    -0.23530
H800        H  0.28298023  0.57572128  0.75595973     0.15450
H801        H  0.16181729  0.65277814  0.68701830     0.15480
C802        C  0.14576358  0.57810794  0.67695735    -0.23480
H803        H  0.32114887  0.62747634  0.78336239     0.05690
H804        H  0.28581201  0.66694125  0.79561372     0.08910
H805        H  0.31959238  0.66590495  0.74460706     0.08910
H806        H  0.12749301  0.56030119  0.70167911     0.08900
H807        H  0.15776010  0.56043500  0.64857430     0.08900
H808        H  0.12164767  0.59902866  0.66327009     0.05670
C809        C  0.70520954  0.95903535  0.64575586    -0.20130
C810        C  0.69222591  0.96010833  0.69130594    -0.06700
C811        C  0.64579799  0.96051393  0.70211011     0.14170
C812        C  0.61364307  0.96339121  0.66732301    -0.20180
C813        C  0.62680336  0.96602433  0.62181706    -0.06700
C814        C  0.67319493  0.96219424  0.61079831     0.14160
C815        C  0.68975613  0.96459979  0.56270389    -0.23530
H816        H  0.74091698  0.95971688  0.63765858     0.15450
H817        H  0.57812028  0.96527849  0.67585820     0.15480
C818        C  0.63049251  0.96060822  0.75065269    -0.23480
H819        H  0.72719382  0.96333337  0.56075039     0.05690
H820        H  0.67880601  0.49142433  0.54727790     0.08910
H821        H  0.67621274  0.94081461  0.54276156     0.08910
H822        H  0.64359327  0.98579677  0.76828465     0.08900
H823        H  0.64336132  0.93519258  0.76794470     0.08900
H824        H  0.59307296  0.96073612  0.75337240     0.05670
C825        C  0.89402809  0.96197320  0.83832975    -0.20130
C826        C  0.88026633  0.96374316  0.88372543    -0.06700
C827        C  0.83376717  0.95897426  0.89398333     0.14170
C828        C  0.80222144  0.95629073  0.85850229    -0.20180
C829        C  0.81578706  0.95850535  0.81319903    -0.06700
C830        C  0.86236905  0.95935700  0.80305852     0.14160
C831        C  0.87834453  0.96024819  0.75473276    -0.23530
H832        H  0.92962984  0.96435282  0.83027552     0.15450
H833        H  0.76640267  0.95646348  0.86612574     0.15480
C834        C  0.81651262  0.95974980  0.94189096    -0.23480
H835        H  0.91579755  0.96058964  0.75253772     0.05690
H836        H  0.86543261  0.98562108  0.73739493     0.08910
H837        H  0.86580474  0.93502742  0.73676259     0.08910
H838        H  0.82657751  0.48634840  0.95847228     0.08900
H839        H  0.83037901  0.93568197  0.96108320     0.08900
H840        H  0.77909270  0.95769441  0.94327401     0.05670
C841        C  0.79321218  0.75976765  0.86303043    -0.20130
C842        C  0.80550156  0.77049952  0.81909451    -0.06700
C843        C  0.84939013  0.78423992  0.81117952     0.14170
C844        C  0.88170683  0.78211194  0.84584598    -0.20180
C845        C  0.87120252  0.76562982  0.88776867    -0.06700
C846        C  0.82565380  0.75637719  0.89732208     0.14160
C847        C  0.81092508  0.74204115  0.94292550    -0.23530
H848        H  0.75923604  0.74947194  0.86890270     0.15450
H849        H  0.91614453  0.79066821  0.83889065     0.15480
C850        C  0.86297334  0.79826280  0.76514883    -0.23480
H851        H  0.77364139  0.73891258  0.94496629     0.05690
H852        H  0.82154634  0.76204958  0.96957728     0.08910
H853        H  0.82577687  0.71411423  0.94959186     0.08910
H854        H  0.84114819  0.82219639  0.75546433     0.08900
H855        H  0.85920482  0.77564115  0.73972482     0.08900
H856        H  0.89865431  0.80790535  0.76463288     0.05670
C857        C  0.66210923  0.78170966  0.69231120    -0.20130
C858        C  0.70470523  0.76866760  0.67922201    -0.06700
C859        C  0.71250417  0.75965529  0.63337384     0.14170
C860        C  0.67615130  0.75876465  0.60323668    -0.20180
C861        C  0.63226622  0.76753165  0.61746026    -0.06700
C862        C  0.62557378  0.78136253  0.66191770     0.14160
C863        C  0.57965958  0.79296987  0.67880619    -0.23530
H864        H  0.65630858  0.78845186  0.72754856     0.15450
H865        H  0.68190960  0.74964172  0.56877200     0.15480
C866        C  0.75832956  0.74801159  0.61628894    -0.23480
H867        H  0.58062511  0.80139076  0.71492611     0.05690
H868        H  0.55547291  0.76935223  0.67552345     0.08910
H869        H  0.56733841  0.81734749  0.65911800     0.08910
H870        H  0.75701334  0.71851472  0.60460184     0.08900
H871        H  0.78492532  0.75055403  0.64257726     0.08900
H872        H  0.76822554  0.76618826  0.58751010     0.05670
C873        C  0.74108055  0.63532731  0.78472676    -0.20130
C874        C  0.76118245  0.65300705  0.74754590    -0.06700
C875        C  0.77984174  0.63167947  0.71204509     0.14170
C876        C  0.77703886  0.59279971  0.71433986    -0.20180
C877        C  0.75699255  0.57525753  0.75152413    -0.06700
C878        C  0.73876114  0.59644164  0.78715952     0.14160
C879        C  0.71598454  0.57810271  0.82698574    -0.23530
H880        H  0.72665414  0.65210625  0.81158965     0.15450
H881        H  0.79114963  0.57599026  0.68732288     0.15480
C882        C  0.80380139  0.64877609  0.67208401    -0.23480
H883        H  0.70244030  0.59908333  0.85107475     0.05690
H884        H  0.74048535  0.56032035  0.84552377     0.08910
H885        H  0.68742426  0.56051502  0.81502983     0.08910
H886        H  0.80682123  0.67959728  0.67423613     0.08900
H887        H  0.83858425  0.63732851  0.66994813     0.08900
H888        H  0.78531732  0.64164304  0.64056334     0.05670
C889        C  0.80073467  0.70789321  0.14678417    -0.20130
C890        C  0.81177512  0.71486627  0.19201700    -0.06700
C891        C  0.85747923  0.72005054  0.20411676     0.14170
C892        C  0.89067252  0.72121472  0.17020883    -0.20180
C893        C  0.87916891  0.71773934  0.12426047    -0.06700
C894        C  0.83359650  0.70954172  0.11262972     0.14160
C895        C  0.81823771  0.70561682  0.06423778    -0.23530
H896        H  0.76542251  0.70488847  0.13765414     0.15450
H897        H  0.92551533  0.72652671  0.17952807     0.15480
C898        C  0.87066585  0.72666755  0.25265573    -0.23480
H899        H  0.78110443  0.70162679  0.06162020     0.05690
H900        H  0.83441513  0.68088166  0.04848613     0.08910
H901        H  0.82706018  0.73129053  0.04507863     0.08910
H902        H  0.85969546  0.70251855  0.27356930     0.08900
H903        H  0.85430681  0.75247187  0.26550794     0.08900
H904        H  0.90778580  0.72995016  0.25654152     0.05670
C905        C  0.66518117  0.71420900  0.38926440    -0.20130
C906        C  0.61905568  0.71639211  0.37822465    -0.06700
C907        C  0.60568358  0.71160431  0.33261848     0.14170
C908        C  0.63890272  0.70861488  0.29896212    -0.20180
C909        C  0.68500700  0.71137670  0.30955482    -0.06700
C910        C  0.69832653  0.71239967  0.35536126     0.14160
C911        C  0.74754283  0.71473204  0.36812154    -0.23530
H912        H  0.67549712  0.71680325  0.42428767     0.15450
H913        H  0.62882027  0.70826213  0.26371861     0.15480
C914        C  0.55660750  0.71036504  0.31895779    -0.23480
H915        H  0.75227056  0.71540330  0.40535852     0.05690
H916        H  0.76285674  0.74050720  0.35379776     0.08910
H917        H  0.76564435  0.68996334  0.35466113     0.08910
H918        H  0.54033801  0.73776938  0.32536578     0.08900
H919        H  0.53884675  0.68816795  0.33830701     0.08900
H920        H  0.55255257  0.70410855  0.28240534     0.05670
C921        C  0.84383617  0.53074485  0.11916661    -0.20130
C922        C  0.88349481  0.51101405  0.12910193    -0.06700
C923        C  0.89053846  0.99658194  0.17283752     0.14170
C924        C  0.85591468  0.99947874  0.20482180    -0.20180
C925        C  0.81421440  0.51563984  0.19342093    -0.06700
C926        C  0.80885345  0.53309202  0.15101643     0.14160
C927        C  0.76514523  0.55195882  0.13856445    -0.23530
H928        H  0.83937101  0.54265732  0.08576315     0.15450
H929        H  0.85955474  0.98561821  0.23723219     0.15480
C930        C  0.93346603  0.97622672  0.18479767    -0.23480
H931        H  0.76656100  0.56430444  0.10413866     0.05690
H932        H  0.75808536  0.57476364  0.16300301     0.08910
H933        H  0.73698745  0.53142097  0.13941231     0.08910
H934        H  0.96279225  0.99528551  0.18055263     0.08900
H935        H  0.93769977  0.95161654  0.16232602     0.08900
H936        H  0.93318221  0.96617509  0.22032465     0.05670
C937        C  0.64667334  0.53322947  0.30346892    -0.20130
C938        C  0.69061513  0.52073250  0.31207302    -0.06700
C939        C  0.70293495  0.01037382  0.35643931     0.14170
C940        C  0.66974515  0.00884665  0.39014200    -0.20180
C941        C  0.62450618  0.51739630  0.38039026    -0.06700
C942        C  0.61322870  0.53157266  0.33697308     0.14160
C943        C  0.56549653  0.54193520  0.32422970    -0.23530
H944        H  0.63737679  0.54043976  0.26909140     0.15450
H945        H  0.67875367  0.99914162  0.42367739     0.15480
C946        C  0.75043830  0.99808537  0.36718058    -0.23480
H947        H  0.56276455  0.55035301  0.28818608     0.05690
H948        H  0.55396569  0.56597069  0.34490598     0.08910
H949        H  0.54273306  0.01762486  0.32955353     0.08910
H950        H  0.77439192  0.52098621  0.35883078     0.08900
H951        H  0.75930430  0.97289894  0.34716619     0.08900
H952        H  0.75451565  0.99107101  0.40353273     0.05670
C953        C  0.71583102  0.84527715  0.20013777    -0.20130
C954        C  0.73253360  0.82807870  0.23928039    -0.06700
C955        C  0.74695251  0.84967781  0.27643103     0.14170
C956        C  0.74395187  0.88843234  0.27365871    -0.20180
C957        C  0.72745239  0.90575503  0.23454658    -0.06700
C958        C  0.71317867  0.88426093  0.19730337     0.14160
C959        C  0.69483281  0.90237061  0.15516486    -0.23530
H960        H  0.70506309  0.82814403  0.17187815     0.15450
H961        H  0.75558606  0.90546931  0.30169045     0.15480
C962        C  0.76695674  0.83203885  0.31825575    -0.23480
H963        H  0.68413736  0.88122870  0.12981060     0.05690
H964        H  0.72107803  0.92031081  0.13943297     0.08910
H965        H  0.66505518  0.91977858  0.16383763     0.08910
H966        H  0.79664376  0.81475701  0.30889638     0.08900
H967        H  0.74145638  0.81415913  0.33523663     0.08900
H968        H  0.77832637  0.85342881  0.34301114     0.05670
loop_ 
_geom_bond_atom_site_label_1 
_geom_bond_atom_site_label_2 
_geom_bond_distance 
_geom_bond_site_symmetry_2 
_ccdc_geom_bond_type 
C1            C6   1.409       .  A
C1          C486   1.397   1_545  A
C1          C454   1.469       .  S
C2            C3   1.387       .  A
C2          C485   1.397       .  A
C2            H7   1.086       .  S
C3            C4   1.387       .  A
C3          C473   1.458       .  S
C4          C489   1.398       .  A
C4            H8   1.085       .  S
C5            C6   1.410       .  A
C5          C488   1.398   1_545  A
C5          C441   1.470       .  S
C6            H9   1.083       .  S
C10          C11   1.396       .  A
C10          C15   1.415       .  A
C10         C425   1.476       .  S
C11          C12   1.385       .  A
C11          H16   1.086       .  S
C12          C13   1.386       .  A
C12         C470   1.457       .  S
C13          C14   1.398       .  A
C13          H17   1.085       .  S
C14          C15   1.415       .  A
C14         C406   1.476       .  S
C15          H18   1.082       .  S
C19          C20   1.398       .  A
C19          C24   1.411       .  A
C19         C358   1.473       .  S
C20          C21   1.385       .  A
C20          H25   1.086       .  S
C21          C22   1.386       .  A
C21         C390   1.458       .  S
C22          C23   1.399       .  A
C22          H26   1.085       .  S
C23          C24   1.412       .  A
C23         C374   1.473       .  S
C24          H27   1.083       .  S
C28          C33   1.417       .  A
C28         C513   1.397       .  A
C28         C326   1.477       .  S
C29          C30   1.385       .  A
C29         C512   1.397   1_545  A
C29          H34   1.086       .  S
C30          C31   1.385       .  A
C30         C393   1.455       .  S
C31         C516   1.397   1_545  A
C31          H35   1.086       .  S
C32          C33   1.416       .  A
C32         C515   1.397       .  A
C32         C345   1.477       .  S
C33          H36   1.082       .  S
C37          C42   1.413       .  A
C37         C522   1.397       .  A
C37         C294   1.478       .  S
C38          C39   1.389       .  A
C38         C521   1.397   1_545  A
C38          H43   1.086       .  S
C39          C40   1.389       .  A
C39         C310   1.460       .  S
C40         C525   1.399   1_545  A
C40          H44   1.086       .  S
C41          C42   1.414       .  A
C41         C524   1.399       .  A
C41         C278   1.477       .  S
C42          H45   1.083       .  S
C46          C47   1.398       .  A
C46          C51   1.409       .  A
C46         C262   1.471       .  S
C47          C48   1.388       .  A
C47          H52   1.086       .  S
C48          C49   1.388       .  A
C48         C313   1.460       .  S
C49          C50   1.400       .  A
C49          H53   1.085       .  S
C50          C51   1.410       .  A
C50         C246   1.470       .  S
C51          H54   1.083       .  S
Zn55         O59   1.972       .  S
Zn55         O60   2.038       .  S
Zn55         O64   2.056       .  S
Zn55         O71   2.015       .  S
Zn56        O543   1.950   1_545  S
Zn56         O61   1.984       .  S
Zn56         O63   1.985       .  S
Zn56         O67   1.986       .  S
Zn57         O59   1.967       .  S
Zn57         O62   2.052       .  S
Zn57         O65   2.037       .  S
Zn57         O68   2.012       .  S
Zn58        O543   1.987   1_545  S
Zn58         O66   2.046   1_545  S
Zn58         O69   2.107       .  S
Zn58         O70   2.044   1_545  S
O59        Zn540   1.950       .  S
O59        Zn542   1.987       .  S
O60          C72   1.277       .  A
O61         C557   1.268       .  A
O62          C74   1.276       .  A
O63         C556   1.268       .  A
O64          C74   1.276       .  A
O65          C73   1.277       .  A
O66         C559   1.279       .  A
O67          C76   1.267       .  A
O68          C75   1.272       .  A
O69          C76   1.281       .  A
O70         C561   1.279       .  A
O71          C77   1.273       .  A
C72         C941   1.482       .  S
C72         O547   1.268       .  A
C73         C717   1.480       .  S
C73         O545   1.268       .  A
C74          C97   1.481       .  S
C75         C297   1.501       .  S
C75         O550   1.279       .  A
C76          C99   1.480       .  S
C77         C329   1.488       .  S
C77         O554   1.279       .  A
Zn78         O82   1.981       .  S
Zn78         O83   2.036       .  S
Zn78         O87   2.106       .  S
Zn78         O94   2.041       .  S
Zn79         O82   1.972       .  S
Zn79         O84   2.025       .  S
Zn79         O86   2.017       .  S
Zn79         O90   2.053       .  S
Zn80         O82   1.959       .  S
Zn80         O85   1.996       .  S
Zn80         O88   1.994       .  S
Zn80         O91   1.994       .  S
Zn81         O82   1.969       .  S
Zn81         O89   2.030       .  S
Zn81         O92   2.050       .  S
Zn81         O93   2.024       .  S
O83          C95   1.277       .  A
O84          C96   1.276       .  A
O85          C97   1.269       .  A
O86          C95   1.273       .  A
O87          C97   1.281       .  A
O88          C96   1.269       .  A
O89          C98   1.276       .  A
O90          C99   1.275       .  A
O91          C98   1.269       .  A
O92          C99   1.275       .  A
O93         C100   1.274       .  A
O94         C100   1.279       .  A
C95         C422   1.485       .  S
C96         C377   1.481       .  S
C98         C265   1.466       .  S
C100        C214   1.490       .  S
C101        C102   1.410       .  A
C101        C590   1.397   1_545  A
C101        C182   1.468       .  S
C102        C103   1.410       .  A
C102        H107   1.083       .  S
C103        C588   1.398   1_545  A
C103        C230   1.469       .  S
C104        C105   1.385       .  A
C104        C587   1.398       .  A
C104        H108   1.085       .  S
C105        C106   1.383       .  A
C105        C198   1.453       .  S
C106        C585   1.397       .  A
C106        H109   1.086       .  S
C110        C111   1.397       .  A
C110        C115   1.417       .  A
C110        C217   1.478       .  S
C111        C112   1.385       .  A
C111        H116   1.086       .  S
C112        C113   1.385       .  A
C112        C201   1.455       .  S
C113        C114   1.397       .  A
C113        H117   1.086       .  S
C114        C115   1.416       .  A
C114        C166   1.477       .  S
C115        H118   1.082       .  S
Zn119       O607   1.983   1_546  S
Zn119       O124   2.106       .  S
Zn119       O128   2.047   1_445  S
Zn119       O135   2.038   1_545  S
Zn120       O607   1.956   1_545  S
Zn120       O125   1.984   1_455  S
Zn120       O127   1.990       .  S
Zn120       O131   1.983       .  S
Zn121       O123   1.968   1_655  S
Zn121       O126   2.018   1_554  S
Zn121       O129   2.032       .  S
Zn121       O132   2.046       .  S
Zn122       O123   1.976       .  S
Zn122       O130   2.062       .  S
Zn122       O133   2.032       .  S
Zn122       O134   2.018   1_554  S
O123       Zn603   1.983   1_554  S
O123       Zn604   1.956       .  S
O124        C136   1.281       .  A
O125        C621   1.267       .  A
O126        C138   1.273       .  A
O127        C136   1.268   1_554  A
O128        C622   1.279       .  A
O129        C137   1.276       .  A
O130        C139   1.277       .  A
O131        C624   1.268       .  A
O132        C139   1.275   1_655  A
O133        C140   1.276       .  A
O134        C141   1.273       .  A
O135        C625   1.277       .  A
C136        C163   1.480       .  S
C137        C922   1.464       .  S
C137        O609   1.267       .  A
C138        C342   1.491       .  S
C138        O612   1.279       .  A
C139        C161   1.481       .  S
C140        C669   1.473       .  S
C140        O615   1.268       .  A
C141        C281   1.474       .  S
C141        O619   1.277       .  A
Zn142       O146   1.987       .  S
Zn142       O147   2.049   1_455  S
Zn142       O151   2.105       .  S
Zn142       O158   2.043       .  S
Zn143       O146   1.965   1_656  S
Zn143       O148   2.026       .  S
Zn143       O150   2.005   1_556  S
Zn143       O154   2.050       .  S
Zn144       O146   1.956   1_656  S
Zn144       O149   1.995   1_655  S
Zn144       O152   2.000       .  S
Zn144       O155   1.992   1_655  S
Zn145       O146   1.970   1_556  S
Zn145       O153   2.032       .  S
Zn145       O156   2.053       .  S
Zn145       O157   2.015   1_556  S
O147        C159   1.279       .  A
O148        C160   1.275       .  A
O149        C161   1.268   1_556  A
O150        C159   1.272       .  A
O151        C161   1.281       .  A
O152        C160   1.271       .  A
O153        C162   1.277       .  A
O154        C163   1.275   1_655  A
O155        C162   1.270       .  A
O156        C163   1.275       .  A
O157        C164   1.273       .  A
O158        C164   1.279       .  A
C159        C409   1.491       .  S
C160        C361   1.484       .  S
C162        C249   1.481       .  S
C164        C169   1.490       .  S
C165        C166   1.402       .  A
C165        C170   1.407       .  A
C165        H172   1.084       .  S
C166        C167   1.412       .  A
C167        C168   1.404       .  A
C167        C174   1.507       .  S
C168        C169   1.406       .  A
C168        H173   1.084       .  S
C169        C170   1.420       .  A
C170        C171   1.508       .  S
C171        H175   1.111       .  S
C171        H176   1.111       .  S
C171        H177   1.110       .  S
C174        H178   1.110       .  S
C174        H179   1.110       .  S
C174        H180   1.111       .  S
C181        C182   1.401       .  A
C181        C186   1.403       .  A
C181        H188   1.084       .  S
C182        C667   1.412       .  A
C183        C184   1.400       .  A
C183        C666   1.412       .  A
C183        C190   1.507       .  S
C184        C669   1.401       .  A
C184        H189   1.084       .  S
C185        C186   1.416       .  A
C185        C668   1.401       .  A
C185        C624   1.473       .  S
C186        C187   1.508       .  S
C187        H191   1.111       .  S
C187        H193   1.110       .  S
C187        H676   1.110   1_545  S
C190        H194   1.110       .  S
C190        H196   1.111       .  S
C190        H679   1.110       .  S
H192        C671   1.110       .  S
H195        C674   1.110       .  S
C197        C198   1.398       .  A
C197        C202   1.393       .  A
C197        H204   1.085       .  S
C198        C199   1.407       .  A
C199        C200   1.395       .  A
C199        C206   1.507       .  S
C200        C201   1.400       .  A
C200        H205   1.084       .  S
C201        C202   1.409       .  A
C202        C203   1.508       .  S
C203        H207   1.111       .  S
C203        H208   1.110       .  S
C203        H209   1.109       .  S
C206        H210   1.110       .  S
C206        H211   1.111       .  S
C206        H212   1.111       .  S
C213        C214   1.406       .  A
C213        C218   1.404       .  A
C213        H220   1.084       .  S
C214        C215   1.419       .  A
C215        C216   1.408       .  A
C215        C222   1.507       .  S
C216        C217   1.402       .  A
C216        H221   1.084       .  S
C217        C218   1.412       .  A
C218        C219   1.507       .  S
C219        H223   1.111       .  S
C219        H224   1.110       .  S
C219        H225   1.110       .  S
C222        H226   1.110       .  S
C222        H227   1.110       .  S
C222        H228   1.111       .  S
C229        C230   1.399       .  A
C229        C234   1.403       .  A
C229        H236   1.084       .  S
C230        C715   1.412       .  A
C231        C232   1.401       .  A
C231        C714   1.412       .  A
C231        C238   1.508       .  S
C232        C717   1.403       .  A
C232        H237   1.084       .  S
C233        C234   1.420       .  A
C233        C716   1.403       .  A
C233        C557   1.480       .  S
C234        C235   1.508       .  S
C235        H239   1.111       .  S
C235        H240   1.110       .  S
C235        H241   1.110       .  S
C238        H242   1.110       .  S
C238        H243   1.110       .  S
C238        H244   1.111       .  S
C245        C246   1.399       .  A
C245        C250   1.402       .  A
C245        H252   1.084       .  S
C246        C247   1.410       .  A
C247        C248   1.402       .  A
C247        C254   1.507       .  S
C248        C249   1.405       .  A
C248        H253   1.084       .  S
C249        C250   1.419       .  A
C250        C251   1.509       .  S
C251        H255   1.111       .  S
C251        H256   1.110       .  S
C251        H257   1.111       .  S
C254        H258   1.110       .  S
C254        H259   1.110       .  S
C254        H260   1.111       .  S
C261        C262   1.405       .  A
C261        C266   1.400       .  A
C261        H268   1.084       .  S
C262        C263   1.410       .  A
C263        C264   1.404       .  A
C263        C270   1.505       .  S
C264        C265   1.402       .  A
C264        H269   1.084       .  S
C265        C266   1.408       .  A
C266        C267   1.507       .  S
C267        H271   1.111       .  S
C267        H272   1.110       .  S
C267        H273   1.111       .  S
C270        H274   1.110       .  S
C270        H275   1.110       .  S
C270        H276   1.111       .  S
C277        C278   1.402       .  A
C277        C282   1.406       .  A
C277        H284   1.084       .  S
C278        C763   1.417       .  A
C279        C280   1.402       .  A
C279        C762   1.417       .  A
C279        C286   1.508   1_565  S
C280        C765   1.399       .  A
C280        H285   1.085   1_565  S
C281        C282   1.412       .  A
C281        C764   1.399       .  A
C282        C283   1.506       .  S
C283        H287   1.111       .  S
C283        H288   1.110       .  S
C283        H289   1.111       .  S
C286        H290   1.111       .  S
C286        H291   1.109       .  S
C286        H292   1.110       .  S
C293        C294   1.398       .  A
C293        C298   1.408       .  A
C293        H300   1.084       .  S
C294        C295   1.413       .  A
C295        C780   1.402       .  A
C295        C786   1.508       .  S
C296        C779   1.402       .  A
C296        C781   1.408       .  A
C296        H301   1.084   1_565  S
C297        C298   1.427       .  A
C297        C780   1.408       .  A
C298        C299   1.508       .  S
C299        H303   1.111       .  S
C299        H304   1.110       .  S
C299        H305   1.110       .  S
C302        C779   1.508   1_545  S
C302        H306   1.109       .  S
C302        H307   1.111       .  S
C302        H308   1.110   1_545  S
C309        C310   1.399       .  A
C309        C314   1.389       .  A
C309        H316   1.085       .  S
C310        C311   1.407       .  A
C311        C312   1.403       .  A
C311        C318   1.504       .  S
C312        C313   1.402       .  A
C312        H317   1.084       .  S
C313        C314   1.411       .  A
C314        C315   1.510       .  S
C315        H319   1.111       .  S
C315        H320   1.110       .  S
C315        H321   1.109       .  S
C318        H322   1.110       .  S
C318        H323   1.110       .  S
C318        H324   1.111       .  S
C325        C326   1.403       .  A
C325        C330   1.407       .  A
C325        H332   1.084       .  S
C326        C327   1.412       .  A
C327        C328   1.405       .  A
C327        C334   1.507       .  S
C328        C329   1.405       .  A
C328        H333   1.084       .  S
C329        C330   1.419       .  A
C330        C331   1.508       .  S
C331        H335   1.111       .  S
C331        H337   1.110       .  S
C331        H820   1.111       .  S
C334        H338   1.110       .  S
C334        H339   1.110       .  S
C334        H340   1.111       .  S
H336        C815   1.111       .  S
C341        C342   1.406       .  A
C341        C346   1.405       .  A
C341        H348   1.084       .  S
C342        C343   1.420       .  A
C343        C344   1.407       .  A
C343        C350   1.508       .  S
C344        C345   1.402       .  A
C344        H349   1.084       .  S
C345        C346   1.412       .  A
C346        C347   1.507       .  S
C347        H351   1.111       .  S
C347        H352   1.110       .  S
C347        H353   1.110       .  S
C350        H355   1.110       .  S
C350        H356   1.111       .  S
C350        H838   1.110       .  S
H354        C834   1.110       .  S
C357        C358   1.403       .  A
C357        C362   1.401       .  A
C357        H364   1.085       .  S
C358        C359   1.408       .  A
C359        C360   1.404       .  A
C359        C366   1.506       .  S
C360        C361   1.408       .  A
C360        H365   1.084       .  S
C361        C362   1.417       .  A
C362        C363   1.508       .  S
C363        H367   1.111       .  S
C363        H368   1.110       .  S
C363        H369   1.109       .  S
C366        H370   1.110       .  S
C366        H371   1.110       .  S
C366        H372   1.111       .  S
C373        C374   1.400       .  A
C373        C378   1.406       .  A
C373        H380   1.084       .  S
C374        C375   1.414       .  A
C375        C376   1.397       .  A
C375        C382   1.508       .  S
C376        C377   1.402       .  A
C376        H381   1.085       .  S
C377        C378   1.420       .  A
C378        C379   1.508       .  S
C379        H383   1.111       .  S
C379        H384   1.110       .  S
C379        H385   1.110       .  S
C382        H386   1.111       .  S
C382        H387   1.110       .  S
C382        H388   1.110       .  S
C389        C390   1.401       .  A
C389        C394   1.394       .  A
C389        H396   1.085       .  S
C390        C391   1.412       .  A
C391        C392   1.394       .  A
C391        C398   1.508       .  S
C392        C393   1.398       .  A
C392        H397   1.085       .  S
C393        C394   1.407       .  A
C394        C395   1.508       .  S
C395        H399   1.111       .  S
C395        H400   1.110       .  S
C395        H401   1.110       .  S
C398        H402   1.107       .  S
C398        H403   1.111       .  S
C398        H404   1.110       .  S
C405        C406   1.400       .  A
C405        C410   1.405       .  A
C405        H412   1.085       .  S
C406        C407   1.411       .  A
C407        C408   1.406       .  A
C407        C414   1.507       .  S
C408        C409   1.407       .  A
C408        H413   1.084       .  S
C409        C410   1.422       .  A
C410        C411   1.508       .  S
C411        H415   1.111       .  S
C411        H416   1.110       .  S
C411        H417   1.110       .  S
C414        H418   1.110       .  S
C414        H419   1.110       .  S
C414        H420   1.111       .  S
C421        C422   1.406       .  A
C421        C426   1.406       .  A
C421        H428   1.084       .  S
C422        C423   1.416       .  A
C423        C424   1.405       .  A
C423        C430   1.508       .  S
C424        C425   1.403       .  A
C424        H429   1.084       .  S
C425        C426   1.412       .  A
C426        C427   1.507       .  S
C427        H431   1.111       .  S
C427        H432   1.110       .  S
C427        H433   1.110       .  S
C430        H434   1.109       .  S
C430        H435   1.110       .  S
C430        H436   1.111       .  S
C437        C438   1.401       .  A
C437        C442   1.404       .  A
C437        H444   1.084       .  S
C438        C923   1.408   1_545  A
C438        C621   1.464       .  S
C439        C440   1.400       .  A
C439        C922   1.408       .  A
C439        C446   1.507       .  S
C440        C925   1.404       .  A
C440        H445   1.084       .  S
C441        C442   1.410       .  A
C441        C924   1.404   1_545  A
C442        C443   1.505       .  S
C443        H447   1.111       .  S
C443        H448   1.110       .  S
C443        H449   1.110       .  S
C446        H450   1.110       .  S
C446        H451   1.111       .  S
C446        H452   1.111       .  S
C453        C454   1.399       .  A
C453        C458   1.403       .  A
C453        H460   1.084       .  S
C454        C939   1.411       .  A
C455        C456   1.402       .  A
C455        C938   1.411       .  A
C455        C462   1.507       .  S
C456        C941   1.404       .  A
C456        H461   1.084       .  S
C457        C458   1.420       .  A
C457        C940   1.404       .  A
C457        C556   1.482       .  S
C458        C459   1.509       .  S
C459        H463   1.111       .  S
C459        H464   1.110       .  S
C459        H949   1.110       .  S
C462        H467   1.110       .  S
C462        H468   1.111       .  S
C462        H950   1.110       .  S
H465        C943   1.110       .  S
H466        C946   1.110   1_545  S
C469        C470   1.401       .  A
C469        C474   1.399       .  A
C469        H476   1.084       .  S
C470        C471   1.409       .  A
C471        C472   1.391       .  A
C471        C478   1.509       .  S
C472        C473   1.400       .  A
C472        H477   1.085       .  S
C473        C474   1.408       .  A
C474        C475   1.506       .  S
C475        H479   1.111       .  S
C475        H480   1.109       .  S
C475        H481   1.110       .  S
C478        H482   1.111       .  S
C478        H483   1.109       .  S
C478        H484   1.111       .  S
C485        C490   1.409       .  A
C485        C938   1.469       .  S
C486        C487   1.387       .  A
C486        H491   1.086       .  S
C487        C488   1.387       .  A
C487        C957   1.458       .  S
C488        H492   1.085       .  S
C489        C490   1.410       .  A
C489        C925   1.470       .  S
C490        H493   1.083       .  S
C494        C495   1.396       .  A
C494        C499   1.415       .  A
C494        C909   1.476       .  S
C495        C496   1.385       .  A
C495        H500   1.086       .  S
C496        C497   1.386       .  A
C496        C954   1.457       .  S
C497        C498   1.398       .  A
C497        H501   1.085       .  S
C498        C499   1.415       .  A
C498        C890   1.476       .  S
C499        H502   1.082       .  S
C503        C504   1.398       .  A
C503        C508   1.411       .  A
C503        C842   1.473       .  S
C504        C505   1.385       .  A
C504        H509   1.086       .  S
C505        C506   1.386       .  A
C505        C874   1.458       .  S
C506        C507   1.399       .  A
C506        H510   1.085       .  S
C507        C508   1.412       .  A
C507        C858   1.473       .  S
C508        H511   1.083       .  S
C512        C517   1.417       .  A
C512        C810   1.477       .  S
C513        C514   1.385       .  A
C513        H518   1.086       .  S
C514        C515   1.385       .  A
C514        C877   1.455       .  S
C515        H519   1.086       .  S
C516        C517   1.416       .  A
C516        C829   1.477       .  S
C517        H520   1.082       .  S
C521        C526   1.413       .  A
C521        C778   1.478       .  S
C522        C523   1.389       .  A
C522        H527   1.086       .  S
C523        C524   1.389       .  A
C523        C794   1.460       .  S
C524        H528   1.086       .  S
C525        C526   1.414       .  A
C525        C762   1.477       .  S
C526        H529   1.083       .  S
C530        C531   1.398       .  A
C530        C535   1.409       .  A
C530        C746   1.471       .  S
C531        C532   1.388       .  A
C531        H536   1.086       .  S
C532        C533   1.388       .  A
C532        C797   1.460       .  S
C533        C534   1.400       .  A
C533        H537   1.085       .  S
C534        C535   1.410       .  A
C534        C730   1.470       .  S
C535        H538   1.083       .  S
Zn539       O543   1.972       .  S
Zn539       O544   2.038       .  S
Zn539       O548   2.056       .  S
Zn539       O555   2.015       .  S
Zn540       O545   1.984       .  S
Zn540       O547   1.985       .  S
Zn540       O551   1.986       .  S
Zn541       O543   1.967       .  S
Zn541       O546   2.052       .  S
Zn541       O549   2.037       .  S
Zn541       O552   2.012       .  S
Zn542       O550   2.046       .  S
Zn542       O553   2.107       .  S
Zn542       O554   2.044       .  S
O544        C556   1.277   1_565  A
O546        C558   1.276       .  A
O548        C558   1.276       .  A
O549        C557   1.277   1_565  A
O551        C560   1.267       .  A
O552        C559   1.272       .  A
O553        C560   1.281       .  A
O555        C561   1.273       .  A
C558        C581   1.481       .  S
C559        C781   1.501       .  S
C560        C583   1.480       .  S
C561        C813   1.488       .  S
Zn562       O566   1.981       .  S
Zn562       O567   2.036       .  S
Zn562       O571   2.106       .  S
Zn562       O578   2.041       .  S
Zn563       O566   1.972       .  S
Zn563       O568   2.025       .  S
Zn563       O570   2.017       .  S
Zn563       O574   2.053       .  S
Zn564       O566   1.959       .  S
Zn564       O569   1.996       .  S
Zn564       O572   1.994       .  S
Zn564       O575   1.994       .  S
Zn565       O566   1.969       .  S
Zn565       O573   2.030       .  S
Zn565       O576   2.050       .  S
Zn565       O577   2.024       .  S
O567        C579   1.277       .  A
O568        C580   1.276       .  A
O569        C581   1.269       .  A
O570        C579   1.273       .  A
O571        C581   1.281       .  A
O572        C580   1.269       .  A
O573        C582   1.276       .  A
O574        C583   1.275       .  A
O575        C582   1.269       .  A
O576        C583   1.275       .  A
O577        C584   1.274       .  A
O578        C584   1.279       .  A
C579        C906   1.485       .  S
C580        C861   1.481       .  S
C582        C749   1.466       .  S
C584        C698   1.490       .  S
C585        C586   1.410       .  A
C585        C666   1.468       .  S
C586        C587   1.410       .  A
C586        H591   1.083       .  S
C587        C714   1.469       .  S
C588        C589   1.385       .  A
C588        H592   1.085       .  S
C589        C590   1.383       .  A
C589        C682   1.453       .  S
C590        H593   1.086       .  S
C594        C595   1.397       .  A
C594        C599   1.417       .  A
C594        C701   1.478       .  S
C595        C596   1.385       .  A
C595        H600   1.086       .  S
C596        C597   1.385       .  A
C596        C685   1.455       .  S
C597        C598   1.397       .  A
C597        H601   1.086       .  S
C598        C599   1.416       .  A
C598        C650   1.477       .  S
C599        H602   1.082       .  S
Zn603       O608   2.106       .  S
Zn603       O612   2.047   1_455  S
Zn603       O619   2.038       .  S
Zn604       O609   1.984   1_455  S
Zn604       O611   1.990       .  S
Zn604       O615   1.983       .  S
Zn605       O607   1.968   1_655  S
Zn605       O610   2.018   1_554  S
Zn605       O613   2.032       .  S
Zn605       O616   2.046       .  S
Zn606       O607   1.976       .  S
Zn606       O614   2.062       .  S
Zn606       O617   2.032       .  S
Zn606       O618   2.018   1_554  S
O608        C620   1.281       .  A
O610        C622   1.273       .  A
O611        C620   1.268   1_554  A
O613        C621   1.276   1_565  A
O614        C623   1.277       .  A
O616        C623   1.275   1_655  A
O617        C624   1.276   1_565  A
O618        C625   1.273       .  A
C620        C647   1.480       .  S
C622        C826   1.491       .  S
C623        C645   1.481       .  S
C625        C765   1.474       .  S
Zn626       O630   1.987       .  S
Zn626       O631   2.049   1_455  S
Zn626       O635   2.105       .  S
Zn626       O642   2.043       .  S
Zn627       O630   1.965   1_656  S
Zn627       O632   2.026       .  S
Zn627       O634   2.005   1_556  S
Zn627       O638   2.050       .  S
Zn628       O630   1.956   1_656  S
Zn628       O633   1.995   1_655  S
Zn628       O636   2.000       .  S
Zn628       O639   1.992   1_655  S
Zn629       O630   1.970   1_556  S
Zn629       O637   2.032       .  S
Zn629       O640   2.053       .  S
Zn629       O641   2.015   1_556  S
O631        C643   1.279       .  A
O632        C644   1.275       .  A
O633        C645   1.268   1_556  A
O634        C643   1.272       .  A
O635        C645   1.281       .  A
O636        C644   1.271       .  A
O637        C646   1.277       .  A
O638        C647   1.275   1_655  A
O639        C646   1.270       .  A
O640        C647   1.275       .  A
O641        C648   1.273       .  A
O642        C648   1.279       .  A
C643        C893   1.491       .  S
C644        C845   1.484       .  S
C646        C733   1.481       .  S
C648        C653   1.490       .  S
C649        C650   1.402       .  A
C649        C654   1.407       .  A
C649        H656   1.084       .  S
C650        C651   1.412       .  A
C651        C652   1.404       .  A
C651        C658   1.507       .  S
C652        C653   1.406       .  A
C652        H657   1.084       .  S
C653        C654   1.420       .  A
C654        C655   1.508       .  S
C655        H659   1.111       .  S
C655        H660   1.111       .  S
C655        H661   1.110       .  S
C658        H662   1.110       .  S
C658        H663   1.110       .  S
C658        H664   1.111       .  S
C665        C666   1.401       .  A
C665        C670   1.403       .  A
C665        H672   1.084       .  S
C667        C668   1.400       .  A
C667        C674   1.507       .  S
C668        H673   1.084       .  S
C669        C670   1.416       .  A
C670        C671   1.508       .  S
C671        H675   1.111       .  S
C671        H677   1.110       .  S
C674        H678   1.110   1_545  S
C674        H680   1.111       .  S
C681        C682   1.398       .  A
C681        C686   1.393       .  A
C681        H688   1.085       .  S
C682        C683   1.407       .  A
C683        C684   1.395       .  A
C683        C690   1.507       .  S
C684        C685   1.400       .  A
C684        H689   1.084       .  S
C685        C686   1.409       .  A
C686        C687   1.508       .  S
C687        H691   1.111       .  S
C687        H692   1.110       .  S
C687        H693   1.109       .  S
C690        H694   1.110       .  S
C690        H695   1.111       .  S
C690        H696   1.111       .  S
C697        C698   1.406       .  A
C697        C702   1.404       .  A
C697        H704   1.084       .  S
C698        C699   1.419       .  A
C699        C700   1.408       .  A
C699        C706   1.507       .  S
C700        C701   1.402       .  A
C700        H705   1.084       .  S
C701        C702   1.412       .  A
C702        C703   1.507       .  S
C703        H707   1.111       .  S
C703        H708   1.110       .  S
C703        H709   1.110       .  S
C706        H710   1.110       .  S
C706        H711   1.110       .  S
C706        H712   1.111       .  S
C713        C714   1.399       .  A
C713        C718   1.403       .  A
C713        H720   1.084       .  S
C715        C716   1.401       .  A
C715        C722   1.508       .  S
C716        H721   1.084       .  S
C717        C718   1.420       .  A
C718        C719   1.508       .  S
C719        H723   1.111       .  S
C719        H724   1.110       .  S
C719        H725   1.110       .  S
C722        H726   1.110   1_545  S
C722        H727   1.110       .  S
C722        H728   1.111   1_545  S
C729        C730   1.399       .  A
C729        C734   1.402       .  A
C729        H736   1.084       .  S
C730        C731   1.410       .  A
C731        C732   1.402       .  A
C731        C738   1.507       .  S
C732        C733   1.405       .  A
C732        H737   1.084       .  S
C733        C734   1.419       .  A
C734        C735   1.509       .  S
C735        H739   1.111       .  S
C735        H740   1.110       .  S
C735        H741   1.111       .  S
C738        H742   1.110       .  S
C738        H743   1.110       .  S
C738        H744   1.111       .  S
C745        C746   1.405       .  A
C745        C750   1.400       .  A
C745        H752   1.084       .  S
C746        C747   1.410       .  A
C747        C748   1.404       .  A
C747        C754   1.505       .  S
C748        C749   1.402       .  A
C748        H753   1.084       .  S
C749        C750   1.408       .  A
C750        C751   1.507       .  S
C751        H755   1.111       .  S
C751        H756   1.110       .  S
C751        H757   1.111       .  S
C754        H758   1.110       .  S
C754        H759   1.110       .  S
C754        H760   1.111       .  S
C761        C762   1.402       .  A
C761        C766   1.406       .  A
C761        H768   1.084       .  S
C763        C764   1.402       .  A
C763        C770   1.508       .  S
C764        H769   1.085       .  S
C765        C766   1.412       .  A
C766        C767   1.506       .  S
C767        H771   1.111       .  S
C767        H772   1.110       .  S
C767        H773   1.111       .  S
C770        H774   1.111       .  S
C770        H775   1.109       .  S
C770        H776   1.110       .  S
C777        C778   1.398       .  A
C777        C782   1.408       .  A
C777        H784   1.084       .  S
C778        C779   1.413       .  A
C780        H785   1.084       .  S
C781        C782   1.427       .  A
C782        C783   1.508       .  S
C783        H787   1.111       .  S
C783        H788   1.110       .  S
C783        H789   1.110       .  S
C786        H790   1.109       .  S
C786        H791   1.111       .  S
C786        H792   1.110       .  S
C793        C794   1.399       .  A
C793        C798   1.389       .  A
C793        H800   1.085       .  S
C794        C795   1.407       .  A
C795        C796   1.403       .  A
C795        C802   1.504       .  S
C796        C797   1.402       .  A
C796        H801   1.084       .  S
C797        C798   1.411       .  A
C798        C799   1.510       .  S
C799        H803   1.111       .  S
C799        H804   1.110       .  S
C799        H805   1.109       .  S
C802        H806   1.110       .  S
C802        H807   1.110       .  S
C802        H808   1.111       .  S
C809        C810   1.403       .  A
C809        C814   1.407       .  A
C809        H816   1.084       .  S
C810        C811   1.412       .  A
C811        C812   1.405       .  A
C811        C818   1.507       .  S
C812        C813   1.405       .  A
C812        H817   1.084       .  S
C813        C814   1.419       .  A
C814        C815   1.508       .  S
C815        H819   1.111       .  S
C815        H821   1.110       .  S
C818        H822   1.110       .  S
C818        H823   1.110       .  S
C818        H824   1.111       .  S
C825        C826   1.406       .  A
C825        C830   1.405       .  A
C825        H832   1.084       .  S
C826        C827   1.420       .  A
C827        C828   1.407       .  A
C827        C834   1.508       .  S
C828        C829   1.402       .  A
C828        H833   1.084       .  S
C829        C830   1.412       .  A
C830        C831   1.507       .  S
C831        H835   1.111       .  S
C831        H836   1.110       .  S
C831        H837   1.110       .  S
C834        H839   1.110       .  S
C834        H840   1.111       .  S
C841        C842   1.403       .  A
C841        C846   1.401       .  A
C841        H848   1.085       .  S
C842        C843   1.408       .  A
C843        C844   1.404       .  A
C843        C850   1.506       .  S
C844        C845   1.408       .  A
C844        H849   1.084       .  S
C845        C846   1.417       .  A
C846        C847   1.508       .  S
C847        H851   1.111       .  S
C847        H852   1.110       .  S
C847        H853   1.109       .  S
C850        H854   1.110       .  S
C850        H855   1.110       .  S
C850        H856   1.111       .  S
C857        C858   1.400       .  A
C857        C862   1.406       .  A
C857        H864   1.084       .  S
C858        C859   1.414       .  A
C859        C860   1.397       .  A
C859        C866   1.508       .  S
C860        C861   1.402       .  A
C860        H865   1.085       .  S
C861        C862   1.420       .  A
C862        C863   1.508       .  S
C863        H867   1.111       .  S
C863        H868   1.110       .  S
C863        H869   1.110       .  S
C866        H870   1.111       .  S
C866        H871   1.110       .  S
C866        H872   1.110       .  S
C873        C874   1.401       .  A
C873        C878   1.394       .  A
C873        H880   1.085       .  S
C874        C875   1.412       .  A
C875        C876   1.394       .  A
C875        C882   1.508       .  S
C876        C877   1.398       .  A
C876        H881   1.085       .  S
C877        C878   1.407       .  A
C878        C879   1.508       .  S
C879        H883   1.111       .  S
C879        H884   1.110       .  S
C879        H885   1.110       .  S
C882        H886   1.107       .  S
C882        H887   1.111       .  S
C882        H888   1.110       .  S
C889        C890   1.400       .  A
C889        C894   1.405       .  A
C889        H896   1.085       .  S
C890        C891   1.411       .  A
C891        C892   1.406       .  A
C891        C898   1.507       .  S
C892        C893   1.407       .  A
C892        H897   1.084       .  S
C893        C894   1.422       .  A
C894        C895   1.508       .  S
C895        H899   1.111       .  S
C895        H900   1.110       .  S
C895        H901   1.110       .  S
C898        H902   1.110       .  S
C898        H903   1.110       .  S
C898        H904   1.111       .  S
C905        C906   1.406       .  A
C905        C910   1.406       .  A
C905        H912   1.084       .  S
C906        C907   1.416       .  A
C907        C908   1.405       .  A
C907        C914   1.508       .  S
C908        C909   1.403       .  A
C908        H913   1.084       .  S
C909        C910   1.412       .  A
C910        C911   1.507       .  S
C911        H915   1.111       .  S
C911        H916   1.110       .  S
C911        H917   1.110       .  S
C914        H918   1.109       .  S
C914        H919   1.110       .  S
C914        H920   1.111       .  S
C921        C922   1.401       .  A
C921        C926   1.404       .  A
C921        H928   1.084       .  S
C923        C924   1.400       .  A
C923        C930   1.507       .  S
C924        H929   1.084       .  S
C925        C926   1.410       .  A
C926        C927   1.505       .  S
C927        H931   1.111       .  S
C927        H932   1.110       .  S
C927        H933   1.110       .  S
C930        H934   1.110       .  S
C930        H935   1.111       .  S
C930        H936   1.111       .  S
C937        C938   1.399       .  A
C937        C942   1.403       .  A
C937        H944   1.084       .  S
C939        C940   1.402       .  A
C939        C946   1.507   1_545  S
C940        H945   1.084   1_545  S
C941        C942   1.420       .  A
C942        C943   1.509       .  S
C943        H947   1.111       .  S
C943        H948   1.110       .  S
C946        H951   1.110       .  S
C946        H952   1.111       .  S
C953        C954   1.401       .  A
C953        C958   1.399       .  A
C953        H960   1.084       .  S
C954        C955   1.409       .  A
C955        C956   1.391       .  A
C955        C962   1.509       .  S
C956        C957   1.400       .  A
C956        H961   1.085       .  S
C957        C958   1.408       .  A
C958        C959   1.506       .  S
C959        H963   1.111       .  S
C959        H964   1.109       .  S
C959        H965   1.110       .  S
C962        H966   1.111       .  S
C962        H967   1.109       .  S
C962        H968   1.111       .  S
