geometry optimzed in LAMMPS
_audit_creation_date              2020-11-30 
_audit_creation_method            'lammps2cif' 
_symmetry_space_group_name_H-M    'P1' 
_symmetry_Int_Tables_number       1 
_symmetry_cell_setting            triclinic 
loop_ 
_symmetry_equiv_pos_as_xyz 
  x,y,z 
_cell_length_a                    27.96043887 
_cell_length_b                    27.888047031364586 
_cell_length_c                    27.90664270627281 
_cell_angle_alpha                 90.0266677169095 
_cell_angle_beta                  89.97930326386599 
_cell_angle_gamma                 89.96558312139955 
loop_ 
_atom_site_label 
_atom_site_type_symbol 
_atom_site_fract_x 
_atom_site_fract_y 
_atom_site_fract_z 
_atom_site_charge 
O1          O  0.00181759  0.08377315  0.13471867    -0.86400
O2          O  0.99503088  0.07781184  0.86461098    -0.86500
O3          O  0.07878531  0.13728351  0.99638162    -0.88200
O4          O  0.92062434  0.13618636  0.99904221    -0.87000
O5          O  0.86361541  0.07714769  0.99859975    -0.86600
O6          O  0.13626269  0.07848236  0.99808192    -0.87900
O7          O  0.99586367  0.13696777  0.92177071    -0.86400
O8          O  0.99915013  0.14055617  0.07526758    -0.86000
Zr9        Zr  0.99988803  0.09829419  0.99921367     2.84300
O10         O  0.95122323  0.04895865  0.95189793    -1.08000
O11         O  0.04934292  0.05137334  0.04823595    -1.08700
C12         C  0.00029907  0.12772857  0.11967223     1.06700
C13         C  0.99403945  0.12219101  0.87805302     1.06700
C14         C  0.12282898  0.12272958  0.99685214     1.09700
C15         C  0.87668242  0.12145652  0.99838885     1.07400
H16         H  0.06746782  0.06907050  0.93020237     0.33000
O17         O  0.04791439  0.04938833  0.95078339    -1.28900
H18         H  0.93183447  0.07091425  0.06829778     0.32700
O19         O  0.95187648  0.05068364  0.04867442    -1.30600
O20         O  0.99836625  0.92163035  0.86566801    -0.86400
O21         O  0.00046486  0.92633457  0.13806729    -0.87900
O22         O  0.13504017  0.00018421  0.92154063    -0.86400
O23         O  0.86401630  0.99631174  0.92387595    -0.86500
O24         O  0.86488682  0.00214208  0.07877882    -0.86200
O25         O  0.13630192  0.99922985  0.07708538    -0.86000
O26         O  0.07883519  0.86583293  0.00061763    -0.86400
O27         O  0.92261013  0.86465341  0.00504166    -0.85800
O28         O  0.13675194  0.92394123  0.99901527    -0.86900
O29         O  0.86454933  0.92278780  0.00627815    -0.86100
O30         O  0.07677495  0.99948717  0.86380455    -0.86500
O31         O  0.07936931  0.00016886  0.13605973    -0.86200
O32         O  0.92268813  0.00367748  0.13705525    -0.85800
O33         O  0.92123634  0.99705440  0.86509946    -0.86200
O34         O  0.99803544  0.86412196  0.92428824    -0.86500
O35         O  0.00183080  0.86691464  0.08137329    -0.87900
Zr36       Zr  0.99921932  0.99985680  0.90402563     2.83100
Zr37       Zr  0.00096147  0.00375741  0.09758340     2.83500
Zr38       Zr  0.09623945  0.00130456  0.99959529     2.84100
Zr39       Zr  0.90415854  0.00043276  0.00131270     2.83400
Zr40       Zr  0.00043201  0.90433612  0.00216354     2.84200
O41         O  0.95281632  0.95358975  0.05055055    -1.08500
O42         O  0.04822741  0.95175504  0.95216344    -1.08000
C43         C  0.99724111  0.87762899  0.87991554     1.06700
C44         C  0.00169720  0.88180364  0.12532545     1.09300
C45         C  0.12094571  0.99965054  0.87746482     1.06900
C46         C  0.87735277  0.99516385  0.87957310     1.07200
C47         C  0.87859524  0.00350873  0.12287880     1.06800
C48         C  0.12326389  0.99798248  0.12146359     1.06400
C49         C  0.12292815  0.87976462  0.00015658     1.06800
C50         C  0.87852469  0.87864412  0.00667404     1.06300
H51         H  0.06863840  0.93412601  0.06918945     0.33000
O52         O  0.04852374  0.95400447  0.04933736    -1.29600
H53         H  0.93148436  0.93092646  0.93401329     0.33000
O54         O  0.95164564  0.95141559  0.95318676    -1.30900
O55         O  0.00217728  0.42575680  0.36275144    -0.86400
O56         O  0.00001873  0.41917633  0.63525271    -0.86500
O57         O  0.07980809  0.36468126  0.49767323    -0.88200
O58         O  0.92400519  0.36342629  0.49933132    -0.87000
O59         O  0.86549213  0.42102117  0.49863587    -0.86600
O60         O  0.13762281  0.42313237  0.50062157    -0.87900
O61         O  0.00119565  0.36243147  0.57581266    -0.86400
O62         O  0.99890406  0.36572043  0.41910400    -0.86000
Zr63       Zr  0.00157025  0.40321572  0.49847762     2.84300
O64         O  0.95192908  0.45028798  0.54680979    -1.08000
O65         O  0.05089751  0.45265534  0.45219821    -1.08700
C66         C  0.99968165  0.38147925  0.37551234     1.06700
C67         C  0.00029833  0.37532271  0.62028463     1.06700
C68         C  0.12375428  0.37898356  0.49882152     1.09700
C69         C  0.87978853  0.37687290  0.49881381     1.07400
H70         H  0.06898490  0.43040962  0.56883826     0.33000
O71         O  0.04914364  0.45059677  0.54887974    -1.28900
H72         H  0.93384466  0.43254858  0.42978202     0.32700
O73         O  0.95358212  0.45222083  0.45039278    -1.30600
O74         O  0.99641515  0.57400447  0.63887636    -0.86400
O75         O  0.00514163  0.57983148  0.36572435    -0.87900
O76         O  0.13549000  0.50129359  0.58132040    -0.86400
O77         O  0.86342722  0.49767627  0.57605806    -0.86500
O78         O  0.86671603  0.49938938  0.41941424    -0.86200
O79         O  0.13885994  0.50201977  0.42530319    -0.86000
O80         O  0.07796296  0.63657114  0.50382957    -0.86400
O81         O  0.92318451  0.63653780  0.49982542    -0.85800
O82         O  0.13667854  0.57900673  0.50454014    -0.86900
O83         O  0.86539849  0.57820667  0.49594177    -0.86100
O84         O  0.07614288  0.49929243  0.63790581    -0.86500
O85         O  0.08152440  0.49864646  0.36648636    -0.86200
O86         O  0.92608729  0.50281871  0.36279127    -0.85800
O87         O  0.92073256  0.49256457  0.63476213    -0.86200
O88         O  0.99840603  0.63342715  0.58210975    -0.86500
O89         O  0.00102998  0.63714688  0.42467561    -0.87900
Zr90       Zr  0.99919945  0.49765850  0.59697380     2.83100
Zr91       Zr  0.00291520  0.50184723  0.40434858     2.83500
Zr92       Zr  0.09775255  0.50080044  0.50249299     2.84100
Zr93       Zr  0.90416749  0.49961327  0.49864802     2.83400
Zr94       Zr  0.00047554  0.59669455  0.50256176     2.84200
O95         O  0.95321585  0.54923749  0.45227791    -1.08500
O96         O  0.04829187  0.54793267  0.55117504    -1.08000
C97         C  0.99656621  0.61842579  0.62595799     1.06700
C98         C  0.00386934  0.62370894  0.38037090     1.09300
C99         C  0.12051727  0.50101295  0.62516586     1.06900
C100        C  0.87687726  0.49384929  0.62022888     1.07200
C101        C  0.88166471  0.50131022  0.37555563     1.06800
C102        C  0.12535452  0.50009209  0.38104795     1.06400
C103        C  0.12214844  0.62300316  0.50398701     1.06800
C104        C  0.87930344  0.62244051  0.49679234     1.06300
H105        H  0.07052996  0.57024176  0.43454885     0.33000
O106        O  0.05029802  0.54991569  0.45395003    -1.29600
H107        H  0.93057027  0.56671252  0.56919820     0.33000
O108        O  0.95116682  0.54727688  0.54918981    -1.30900
O109        O  0.63683741  0.00494894  0.42340460    -0.86400
O110        O  0.36485211  0.99511713  0.42196056    -0.86500
O111        O  0.50227643  0.92064819  0.36500820    -0.88200
O112        O  0.49798647  0.07802941  0.36498922    -0.87000
O113        O  0.49665704  0.13556755  0.42367719    -0.86600
O114        O  0.50199732  0.86272943  0.42331913    -0.87900
O115        O  0.42296766  0.99817998  0.36381231    -0.86400
O116        O  0.57894835  0.00253556  0.36515990    -0.86000
Zr117      Zr  0.50034176  0.99948927  0.40384670     2.84300
O118        O  0.45097988  0.04723364  0.45240885    -1.08000
O119        O  0.54914342  0.95134898  0.45200435    -1.08700
C120        C  0.62299360  0.00502084  0.37923958     1.06700
C121        C  0.37896460  0.99580123  0.37776999     1.06700
C122        C  0.50269831  0.87642110  0.37915152     1.09700
C123        C  0.49666491  0.12214526  0.37937253     1.07400
H124        H  0.43282035  0.93006635  0.43210667     0.33000
O125        O  0.45233803  0.95044109  0.45211167    -1.28900
H126        H  0.56675492  0.06936502  0.43273146     0.32700
O127        O  0.54724959  0.04881817  0.45256283    -1.30600
O128        O  0.36423302  0.99975957  0.57961146    -0.86400
O129        O  0.63589983  0.00000117  0.57799155    -0.87900
O130        O  0.42330974  0.86304628  0.49983444    -0.86400
O131        O  0.41948185  0.13398258  0.50166024    -0.86500
O132        O  0.57560599  0.13692908  0.50029846    -0.86200
O133        O  0.57917219  0.86380010  0.50007902    -0.86000
O134        O  0.49775192  0.92118367  0.63655518    -0.86400
O135        O  0.49861518  0.07644944  0.63775375    -0.85800
O136        O  0.49665738  0.86303957  0.57832343    -0.86900
O137        O  0.49840884  0.13507721  0.58008853    -0.86100
O138        O  0.36462105  0.92035374  0.50165239    -0.86500
O139        O  0.63585103  0.92304230  0.49840629    -0.86200
O140        O  0.63430074  0.07944356  0.50119700    -0.85800
O141        O  0.36254809  0.07500132  0.50000047    -0.86200
O142        O  0.42274237  0.99932923  0.63731922    -0.86500
O143        O  0.57844830  0.99814876  0.63652788    -0.87900
Zr144      Zr  0.40337021  0.99811464  0.50083930     2.83100
Zr145      Zr  0.59614854  0.00088083  0.50060173     2.83500
Zr146      Zr  0.50098807  0.90274528  0.50070086     2.84100
Zr147      Zr  0.49833229  0.09615807  0.50149653     2.83400
Zr148      Zr  0.50020678  0.99911623  0.59747449     2.84200
O149        O  0.54792844  0.04879675  0.54976748    -1.08500
O150        O  0.45203086  0.95019351  0.54939768    -1.08000
C151        C  0.37859290  0.99990380  0.62374188     1.06700
C152        C  0.62246318  0.99791483  0.62218636     1.09300
C153        C  0.37906598  0.87642375  0.50029836     1.06900
C154        C  0.37558037  0.11936928  0.50066908     1.07200
C155        C  0.61987385  0.12347599  0.50017124     1.06800
C156        C  0.62299045  0.87855903  0.49852848     1.06400
C157        C  0.49577867  0.87713047  0.62241038     1.06800
C158        C  0.49792379  0.12068366  0.62416976     1.06300
H159        H  0.56917814  0.93105494  0.56904282     0.33000
O160        O  0.54915187  0.95113268  0.54922923    -1.29600
H161        H  0.43065709  0.06675500  0.56961385     0.33000
O162        O  0.45083668  0.04699224  0.54958707    -1.30900
O163        O  0.42257375  0.36418395  0.99947159    -0.86400
O164        O  0.42376716  0.63716891  0.00338757    -0.86500
O165        O  0.36521967  0.50070873  0.07846509    -0.88200
O166        O  0.36357841  0.50427893  0.92382954    -0.87000
O167        O  0.42102319  0.50566382  0.86507223    -0.86600
O168        O  0.42308956  0.50058101  0.13656995    -0.87900
O169        O  0.36515526  0.57962959  0.00245465    -0.86400
O170        O  0.36498053  0.42277099  0.00079648    -0.86000
Zr171      Zr  0.40418755  0.50130032  0.00075364     2.84300
O172        O  0.45217033  0.54976234  0.95209044    -1.08000
O173        O  0.45204963  0.45225020  0.04881638    -1.08700
C174        C  0.37865691  0.37842709  0.00010861     1.06700
C175        C  0.37951891  0.62367538  0.00385499     1.06700
C176        C  0.37893137  0.50087362  0.12259169     1.09700
C177        C  0.37710952  0.50626765  0.87963995     1.07400
H178        H  0.43365091  0.56939363  0.06923075     0.33000
O179        O  0.45318217  0.54931581  0.04892937    -1.28900
H180        H  0.43080505  0.43300087  0.93147718     0.32700
O181        O  0.45119874  0.45254626  0.95141233    -1.30600
O182        O  0.58031640  0.63548836  0.99968127    -0.86400
O183        O  0.57682039  0.36323206  0.00035736    -0.87900
O184        O  0.50228047  0.57812543  0.13614198    -0.86400
O185        O  0.49885921  0.57886219  0.86366613    -0.86500
O186        O  0.49731721  0.42326301  0.86367368    -0.86200
O187        O  0.49958580  0.42190980  0.13600760    -0.86000
O188        O  0.63744374  0.49970866  0.07647177    -0.86400
O189        O  0.63586088  0.49664384  0.92096317    -0.85800
O190        O  0.57991685  0.50100583  0.13513012    -0.86900
O191        O  0.57741279  0.49810711  0.86334444    -0.86100
O192        O  0.50493863  0.63639215  0.07802192    -0.86500
O193        O  0.49745678  0.36410765  0.07751642    -0.86200
O194        O  0.49965163  0.36497950  0.92158614    -0.85800
O195        O  0.49758730  0.63676918  0.92215718    -0.86200
O196        O  0.63749873  0.57653281  0.00038469    -0.86500
O197        O  0.63506846  0.42109786  0.00001946    -0.87900
Zr198      Zr  0.50158946  0.59732958  0.00007901     2.83100
Zr199      Zr  0.49976995  0.40394483  0.99972887     2.83500
Zr200      Zr  0.50120200  0.50014300  0.09685283     2.84100
Zr201      Zr  0.49963624  0.50109183  0.90317486     2.83400
Zr202      Zr  0.59684364  0.49945673  0.99915854     2.84200
O203        O  0.54798990  0.45176530  0.95071987    -1.08500
O204        O  0.54953351  0.54825780  0.04811002    -1.08000
C205        C  0.62425492  0.62088408  0.00062703     1.06700
C206        C  0.62090121  0.37704253  0.00014235     1.09300
C207        C  0.50429490  0.62220339  0.12207033     1.06900
C208        C  0.49692606  0.62287100  0.87796989     1.07200
C209        C  0.49787529  0.37906980  0.87751542     1.06800
C210        C  0.49770915  0.37781686  0.12176322     1.06400
C211        C  0.62391947  0.50087029  0.12074639     1.06800
C212        C  0.62160190  0.49609514  0.87689748     1.06300
H213        H  0.56879997  0.43102468  0.06823295     0.33000
O214        O  0.54898500  0.45124441  0.04829423    -1.29600
H215        H  0.56932042  0.56878291  0.93062488     0.33000
O216        O  0.54933373  0.54902306  0.95078061    -1.30900
C217        C  0.52341092  0.31254872  0.23801808    -0.01900
C218        C  0.49806626  0.26926275  0.23197268     0.06700
C219        C  0.47155531  0.26210476  0.18992772    -0.07900
C220        C  0.47043838  0.29696901  0.15379360     0.04100
C221        C  0.49657741  0.34009506  0.15933123    -0.15100
C222        C  0.52250203  0.34741527  0.20189141    -0.08400
C223        C  0.49801549  0.23134348  0.26942235     0.05100
C224        C  0.47722892  0.24114952  0.31406995    -0.09500
C225        C  0.47611929  0.20640827  0.35029801     0.00100
C226        C  0.49596022  0.16029933  0.34200199    -0.00100
C227        C  0.51646319  0.15061271  0.29693777    -0.13100
C228        C  0.51785298  0.18563044  0.26096715     0.00400
C229        C  0.45340646  0.21913835  0.39504536     0.39700
C230        C  0.54133230  0.17442773  0.21623640     0.36300
C231        C  0.55136898  0.32153234  0.28058134     0.36100
C232        C  0.44053879  0.28817299  0.11252495     0.36800
N233        N  0.43537158  0.22961216  0.43089404    -0.44000
N234        N  0.56031782  0.16558920  0.18044665    -0.44400
N235        N  0.41633137  0.28077461  0.07971881    -0.41800
N236        N  0.57363322  0.32867670  0.31479583    -0.43200
H237        H  0.54277890  0.38021473  0.20669170     0.12900
H238        H  0.45121891  0.22927012  0.18560124     0.09400
H239        H  0.46155510  0.27615954  0.32052389     0.10500
H240        H  0.53242358  0.11584158  0.28999496     0.16300
C241        C  0.47971670  0.81280290  0.26127077    -0.01900
C242        C  0.50155891  0.76800136  0.26886741     0.06700
C243        C  0.52381130  0.75846482  0.31272748    -0.07900
C244        C  0.52483672  0.79300942  0.34911223     0.04100
C245        C  0.50323708  0.83846738  0.34167628    -0.15100
C246        C  0.48093495  0.84768990  0.29739008    -0.08400
C247        C  0.50182585  0.73051611  0.23135601     0.05100
C248        C  0.53390950  0.73464759  0.19298681    -0.09500
C249        C  0.53570702  0.69952099  0.15717944     0.00100
C250        C  0.50485846  0.65949185  0.15960292    -0.00100
C251        C  0.47313323  0.65525065  0.19838366    -0.13100
C252        C  0.47115632  0.69057161  0.23394165     0.00400
C253        C  0.57093838  0.70428421  0.11964652     0.39700
C254        C  0.43637954  0.68601229  0.27190995     0.36300
C255        C  0.45464132  0.82293404  0.21719349     0.36100
C256        C  0.54969167  0.78089740  0.39283192     0.36800
N257        N  0.59938391  0.70802982  0.08976486    -0.44000
N258        N  0.40828393  0.68262718  0.30217545    -0.44400
N259        N  0.56970104  0.77051598  0.42761160    -0.41800
N260        N  0.43435485  0.83047628  0.18185022    -0.43200
H261        H  0.46357928  0.88192268  0.29123300     0.12900
H262        H  0.54072138  0.72389500  0.31837408     0.09400
H263        H  0.55786233  0.76518682  0.19132202     0.10500
H264        H  0.44907717  0.62480535  0.20032237     0.16300
C265        C  0.51973067  0.81098791  0.73790178    -0.01900
C266        C  0.49122540  0.76974646  0.73250746     0.06700
C267        C  0.46286303  0.76437039  0.69155896    -0.07900
C268        C  0.46316217  0.79918941  0.65549849     0.04100
C269        C  0.49292903  0.83994302  0.65999928    -0.15100
C270        C  0.52047401  0.84563711  0.70170682    -0.08400
C271        C  0.49150509  0.73120365  0.76874130     0.05100
C272        C  0.46377716  0.73641669  0.81019831    -0.09500
C273        C  0.46431187  0.70114231  0.84584926     0.00100
C274        C  0.49389215  0.66031050  0.84056740    -0.00100
C275        C  0.52052741  0.65465595  0.79822157    -0.13100
C276        C  0.51932735  0.68960861  0.76230987     0.00400
C277        C  0.43232755  0.70653763  0.88612436     0.39700
C278        C  0.54715248  0.68239244  0.71929096     0.36300
C279        C  0.54891053  0.81811797  0.77997405     0.36100
C280        C  0.43088449  0.79307512  0.61563570     0.36800
N281        N  0.40632853  0.71076285  0.91811209    -0.44000
N282        N  0.56921796  0.67668722  0.68465922    -0.44400
N283        N  0.40442687  0.78762201  0.58425413    -0.41800
N284        N  0.57219454  0.82393601  0.81375178    -0.43200
H285        H  0.54316842  0.87691678  0.70573933     0.12900
H286        H  0.44034111  0.73291212  0.68791810     0.09400
H287        H  0.44143233  0.76794816  0.81446269     0.10500
H288        H  0.54274570  0.62312375  0.79339952     0.16300
C289        C  0.52053618  0.26099361  0.81460377    -0.01900
C290        C  0.49730568  0.26788002  0.77040644     0.06700
C291        C  0.47345693  0.31116518  0.76146990    -0.07900
C292        C  0.47268634  0.34774416  0.79583829     0.04100
C293        C  0.49667436  0.34131491  0.84008003    -0.15100
C294        C  0.52007881  0.29753455  0.84896392    -0.08400
C295        C  0.49770696  0.23036984  0.73284676     0.05100
C296        C  0.47131799  0.18830631  0.73997135    -0.09500
C297        C  0.47107147  0.15191858  0.70539200     0.00100
C298        C  0.49691610  0.15794004  0.66210449    -0.00100
C299        C  0.52321600  0.20032971  0.65518171    -0.13100
C300        C  0.52441845  0.23602002  0.69045679     0.00400
C301        C  0.44335927  0.10934849  0.71524737     0.39700
C302        C  0.55521840  0.27701354  0.68372837     0.36300
C303        C  0.54609201  0.21716206  0.82480446     0.36100
C304        C  0.44554429  0.39057378  0.78528958     0.36800
N305        N  0.42132520  0.07528753  0.72377697    -0.44000
N306        N  0.58029111  0.30967047  0.67899365    -0.44400
N307        N  0.42372775  0.42483677  0.77687481    -0.41800
N308        N  0.56652241  0.18192931  0.83263741    -0.43200
H309        H  0.53875853  0.29204877  0.88257649     0.12900
H310        H  0.45509180  0.31617150  0.72759967     0.09400
H311        H  0.45099561  0.18388884  0.77280282     0.10500
H312        H  0.54406206  0.20497954  0.62273021     0.16300
C313        C  0.73776047  0.18682177  0.52208064    -0.01900
C314        C  0.73071350  0.23138996  0.49917859     0.06700
C315        C  0.68735662  0.23993078  0.47529234    -0.07900
C316        C  0.65099665  0.20530990  0.47458842     0.04100
C317        C  0.65737595  0.16125136  0.49896574    -0.15100
C318        C  0.70123976  0.15247846  0.52200939    -0.08400
C319        C  0.76847152  0.26909493  0.49898001     0.05100
C320        C  0.81319470  0.25873253  0.47866098    -0.09500
C321        C  0.85020268  0.29258128  0.47892958     0.00100
C322        C  0.84229862  0.33887958  0.49847553    -0.00100
C323        C  0.79715059  0.34928598  0.51822426    -0.13100
C324        C  0.76069035  0.31484192  0.51917160     0.00400
C325        C  0.89559339  0.27846578  0.45859540     0.39700
C326        C  0.71635933  0.32670783  0.54295379     0.36300
C327        C  0.78186204  0.17577273  0.54665527     0.36100
C328        C  0.60881610  0.21499809  0.44632286     0.36800
N329        N  0.93205983  0.26684591  0.44273332    -0.44000
N330        N  0.68104986  0.33637679  0.56234100    -0.44400
N331        N  0.57525572  0.22270614  0.42331648    -0.41800
N332        N  0.81735212  0.16690637  0.56606197    -0.43200
H333        H  0.70696659  0.11872914  0.54044861     0.12900
H334        H  0.68225180  0.27354279  0.45642257     0.09400
H335        H  0.81932942  0.22374411  0.46279399     0.10500
H336        H  0.79055973  0.38416974  0.53411963     0.16300
C337        C  0.68664235  0.75952941  0.51605761    -0.01900
C338        C  0.73265841  0.76919904  0.49782608     0.06700
C339        C  0.74260232  0.81475476  0.47925343    -0.07900
C340        C  0.70774187  0.85078437  0.47880176     0.04100
C341        C  0.66140193  0.84147154  0.49737170    -0.15100
C342        C  0.65157928  0.79543435  0.51562686    -0.08400
C343        C  0.77086667  0.73219802  0.49726956     0.05100
C344        C  0.76498643  0.69127149  0.46865259    -0.09500
C345        C  0.80023079  0.65559419  0.46700899     0.00100
C346        C  0.84204882  0.66023480  0.49511880    -0.00100
C347        C  0.84844399  0.70197673  0.52263646    -0.13100
C348        C  0.81341782  0.73784650  0.52380672     0.00400
C349        C  0.79359254  0.61598505  0.43433588     0.39700
C350        C  0.82147810  0.77966597  0.55325776     0.36300
C351        C  0.67500537  0.71350468  0.53671071     0.36100
C352        C  0.72069966  0.89634596  0.45789735     0.36800
N353        N  0.78823967  0.58456730  0.40777758    -0.44000
N354        N  0.82795402  0.81330115  0.57667228    -0.44400
N355        N  0.73146632  0.93282416  0.44134071    -0.41800
N356        N  0.66565031  0.67668489  0.55336555    -0.43200
H357        H  0.61656453  0.78752920  0.53035689     0.12900
H358        H  0.77783531  0.82206200  0.46468687     0.09400
H359        H  0.73296269  0.68755005  0.44703743     0.10500
H360        H  0.88054526  0.70623598  0.54403689     0.16300
C361        C  0.18869602  0.26464970  0.53066997    -0.01900
C362        C  0.23041563  0.26801667  0.50253378     0.06700
C363        C  0.23724868  0.30826587  0.47319302    -0.07900
C364        C  0.20325224  0.34508861  0.47159616     0.04100
C365        C  0.16104596  0.34143340  0.49923529    -0.15100
C366        C  0.15422413  0.30097658  0.52844234    -0.08400
C367        C  0.26741056  0.22991510  0.50310506     0.05100
C368        C  0.25619272  0.18448557  0.48484788    -0.09500
C369        C  0.29055107  0.14794326  0.48341040     0.00100
C370        C  0.33738677  0.15660519  0.50102999    -0.00100
C371        C  0.34816210  0.20230689  0.51957931    -0.13100
C372        C  0.31380403  0.23878137  0.52053049     0.00400
C373        C  0.27687818  0.10279382  0.46198287     0.39700
C374        C  0.32667177  0.28499406  0.54000270     0.36300
C375        C  0.18145153  0.22516744  0.56335037     0.36100
C376        C  0.21200511  0.38531478  0.44020805     0.36800
N377        N  0.26584551  0.06668627  0.44476128    -0.44000
N378        N  0.33661283  0.32224060  0.55532760    -0.44400
N379        N  0.21939384  0.41743271  0.41503070    -0.41800
N380        N  0.17596665  0.19361926  0.58971097    -0.43200
H381        H  0.12230824  0.29824300  0.55039471     0.12900
H382        H  0.26926576  0.31078377  0.45137052     0.09400
H383        H  0.22058401  0.17785668  0.47090581     0.10500
H384        H  0.38354192  0.20967235  0.53367353     0.16300
C385        C  0.23706958  0.68970847  0.52969285    -0.01900
C386        C  0.23140161  0.73135260  0.50169429     0.06700
C387        C  0.18989455  0.73737090  0.47433021    -0.07900
C388        C  0.15378311  0.70276626  0.47479114     0.04100
C389        C  0.15918641  0.66086157  0.50287322    -0.15100
C390        C  0.20124019  0.65466602  0.52978487    -0.08400
C391        C  0.26849405  0.76908704  0.50048179     0.05100
C392        C  0.31313423  0.75845052  0.48032890    -0.09500
C393        C  0.34952822  0.79278903  0.47920488     0.00100
C394        C  0.34161483  0.83875478  0.49938108    -0.00100
C395        C  0.29633455  0.84938636  0.51877304    -0.13100
C396        C  0.25983253  0.81519484  0.51911598     0.00400
C397        C  0.39381264  0.78007139  0.45573173     0.39700
C398        C  0.21405189  0.82789594  0.53953197     0.36300
C399        C  0.27861820  0.68318820  0.55977154     0.36100
C400        C  0.11253189  0.71062265  0.44468859     0.36800
N401        N  0.42919453  0.76977540  0.43679929    -0.44000
N402        N  0.17724566  0.83799189  0.55563243    -0.44400
N403        N  0.07963904  0.71740368  0.42047437    -0.41800
N404        N  0.31196984  0.67853413  0.58388255    -0.43200
H405        H  0.20572589  0.62281792  0.55162563     0.12900
H406        H  0.18585259  0.76921885  0.45237755     0.09400
H407        H  0.31936684  0.72319607  0.46508907     0.10500
H408        H  0.28940886  0.88443583  0.53414328     0.16300
C409        C  0.76579473  0.47489877  0.30969993    -0.01900
C410        C  0.77270543  0.49863437  0.26567879     0.06700
C411        C  0.81544467  0.52359303  0.25772484    -0.07900
C412        C  0.85124382  0.52530012  0.29285232     0.04100
C413        C  0.84478606  0.50103277  0.33701592    -0.15100
C414        C  0.80169535  0.47607908  0.34476417    -0.08400
C415        C  0.73513667  0.49909818  0.22801731     0.05100
C416        C  0.69334164  0.52578180  0.23579054    -0.09500
C417        C  0.65712559  0.52757477  0.20113505     0.00100
C418        C  0.66203901  0.50152039  0.15787709    -0.00100
C419        C  0.70444648  0.47550158  0.14986780    -0.13100
C420        C  0.74085246  0.47420633  0.18440631     0.00400
C421        C  0.61660977  0.55848771  0.20993814     0.39700
C422        C  0.78338865  0.44642597  0.17476287     0.36300
C423        C  0.72229351  0.44869411  0.31927877     0.36100
C424        C  0.89288594  0.55438870  0.28328254     0.36800
N425        N  0.58441925  0.58361399  0.21701481    -0.44000
N426        N  0.81752515  0.42423103  0.16705111    -0.44400
N427        N  0.92591427  0.57806823  0.27526915    -0.41800
N428        N  0.68726578  0.42786089  0.32662505    -0.43200
H429        H  0.79608594  0.45714466  0.37823486     0.12900
H430        H  0.82042144  0.54259875  0.22418206     0.09400
H431        H  0.68936198  0.54585955  0.26885849     0.10500
H432        H  0.70892918  0.45555185  0.11679268     0.16300
C433        C  0.19462023  0.46411825  0.27023327    -0.01900
C434        C  0.23304768  0.49688555  0.27076842     0.06700
C435        C  0.23561430  0.53119393  0.30747041    -0.07900
C436        C  0.20073098  0.53305654  0.34353621     0.04100
C437        C  0.16299712  0.49944012  0.34376854    -0.15100
C438        C  0.16021529  0.46542172  0.30676365    -0.08400
C439        C  0.27031220  0.49696780  0.23279979     0.05100
C440        C  0.25983766  0.51746255  0.18817665    -0.09500
C441        C  0.29459387  0.51984287  0.15199587     0.00100
C442        C  0.34099890  0.50079865  0.16009795    -0.00100
C443        C  0.35122975  0.48053061  0.20507957    -0.13100
C444        C  0.31651383  0.47863356  0.24123628     0.00400
C445        C  0.28187817  0.54347934  0.10769673     0.39700
C446        C  0.32908757  0.45741701  0.28667092     0.36300
C447        C  0.18943487  0.42914405  0.23245067     0.36100
C448        C  0.20232262  0.57189333  0.37773929     0.36800
N449        N  0.27177461  0.56235335  0.07217387    -0.44000
N450        N  0.33947780  0.44044559  0.32303680    -0.44400
N451        N  0.20301697  0.60338287  0.40474553    -0.41800
N452        N  0.18466356  0.40117659  0.20218208    -0.43200
H453        H  0.13102307  0.43981052  0.30639649     0.12900
H454        H  0.26440149  0.55724715  0.30727482     0.09400
H455        H  0.22452190  0.53230668  0.18189321     0.10500
H456        H  0.38637740  0.46559155  0.21198936     0.16300
C457        C  0.23942553  0.48555458  0.68875697    -0.01900
C458        C  0.22962500  0.50458244  0.73448905     0.06700
C459        C  0.18392752  0.52247455  0.74449422    -0.07900
C460        C  0.14776568  0.52143178  0.70991233     0.04100
C461        C  0.15732339  0.50255164  0.66365866    -0.15100
C462        C  0.20352189  0.48491436  0.65378743    -0.08400
C463        C  0.26649077  0.50594905  0.77258694     0.05100
C464        C  0.30717515  0.53453395  0.76606551    -0.09500
C465        C  0.34331964  0.53592554  0.80070268     0.00100
C466        C  0.33896186  0.50821048  0.84290701    -0.00100
C467        C  0.29731238  0.48088567  0.85001981    -0.13100
C468        C  0.26133674  0.47937778  0.81521721     0.00400
C469        C  0.38351264  0.56731909  0.79250610     0.39700
C470        C  0.22030516  0.44890940  0.82305856     0.36300
C471        C  0.28562128  0.46518008  0.67752003     0.36100
C472        C  0.10180777  0.54108014  0.72313176     0.36800
N473        N  0.41538828  0.59276469  0.78537350    -0.44000
N474        N  0.18733289  0.42454041  0.82893804    -0.44400
N475        N  0.06515241  0.55675655  0.73439493    -0.41800
N476        N  0.32268446  0.44882073  0.66885692    -0.43200
H477        H  0.21151425  0.46981150  0.61887004     0.12900
H478        H  0.17654587  0.53742875  0.77963328     0.09400
H479        H  0.31061878  0.55585090  0.73373721     0.10500
H480        H  0.29344113  0.45952602  0.88226482     0.16300
C481        C  0.76278782  0.52208634  0.68753382    -0.01900
C482        C  0.76735944  0.49327105  0.72879919     0.06700
C483        C  0.80705372  0.46289353  0.73328358    -0.07900
C484        C  0.84238592  0.46137641  0.69771033     0.04100
C485        C  0.83895867  0.49177247  0.65728982    -0.15100
C486        C  0.79859633  0.52137973  0.65241737    -0.08400
C487        C  0.73069525  0.49355831  0.76728552     0.05100
C488        C  0.68626819  0.47203126  0.75869215    -0.09500
C489        C  0.65081979  0.47114549  0.79418862     0.00100
C490        C  0.65903492  0.49358045  0.83899918    -0.00100
C491        C  0.70419569  0.51410528  0.84779243    -0.13100
C492        C  0.73996736  0.51391206  0.81256647     0.00400
C493        C  0.60775033  0.44426139  0.78457151     0.39700
C494        C  0.78563665  0.53562703  0.82319691     0.36300
C495        C  0.72201525  0.55309753  0.68067639     0.36100
C496        C  0.87981984  0.42598010  0.70207800     0.36800
N497        N  0.57360795  0.42211788  0.77690956    -0.44000
N498        N  0.82234218  0.55290727  0.83146869    -0.44400
N499        N  0.90912964  0.39689613  0.70561111    -0.41800
N500        N  0.68933701  0.57788192  0.67477959    -0.43200
H501        H  0.79531222  0.54455194  0.62137975     0.12900
H502        H  0.80992745  0.43965816  0.76431800     0.09400
H503        H  0.67964970  0.45504485  0.72435097     0.10500
H504        H  0.71146551  0.53089875  0.88208314     0.16300
C505        C  0.81310256  0.76350832  0.97768840    -0.01900
C506        C  0.76996140  0.76895099  0.00326000     0.06700
C507        C  0.76305393  0.81001253  0.03145329    -0.07900
C508        C  0.79821539  0.84575936  0.03408146     0.04100
C509        C  0.84108518  0.84093835  0.00747130    -0.15100
C510        C  0.84807747  0.79935760  0.97985657    -0.08400
C511        C  0.73233997  0.73139495  0.00225796     0.05100
C512        C  0.74136938  0.68726842  0.02449913    -0.09500
C513        C  0.70702633  0.65071157  0.02443255     0.00100
C514        C  0.66231243  0.65811412  0.00162648    -0.00100
C515        C  0.65344905  0.70256865  0.97953506    -0.13100
C516        C  0.68791201  0.73899396  0.97965629     0.00400
C517        C  0.71843116  0.60678888  0.04938252     0.39700
C518        C  0.67716839  0.78349971  0.95554893     0.36300
C519        C  0.82192584  0.72171638  0.94843177     0.36100
C520        C  0.79025775  0.88554768  0.06627082     0.36800
N521        N  0.72798537  0.57171875  0.06937890    -0.44000
N522        N  0.66827449  0.81906893  0.93615090    -0.44400
N523        N  0.78356554  0.91696685  0.09254343    -0.41800
N524        N  0.82899064  0.68810995  0.92513728    -0.43200
H525        H  0.88070291  0.79515551  0.95922678     0.12900
H526        H  0.73035709  0.81371782  0.05206888     0.09400
H527        H  0.77538976  0.68154160  0.04229399     0.10500
H528        H  0.61959501  0.70880065  0.96161765     0.16300
C529        C  0.68532966  0.26133644  0.02935640    -0.01900
C530        C  0.72819463  0.26644200  0.00324983     0.06700
C531        C  0.73567861  0.30792994  0.97596168    -0.07900
C532        C  0.70141302  0.34443917  0.97462878     0.04100
C533        C  0.65816367  0.33933022  0.00041257    -0.15100
C534        C  0.65053756  0.29744670  0.02737385    -0.08400
C535        C  0.76583751  0.22899874  0.00356524     0.05100
C536        C  0.75699584  0.18518267  0.98070881    -0.09500
C537        C  0.79253878  0.14988880  0.97788238     0.00100
C538        C  0.83811642  0.15817774  0.99869429    -0.00100
C539        C  0.84658600  0.20220078  0.02175454    -0.13100
C540        C  0.81099523  0.23743144  0.02428030     0.00400
C541        C  0.78140963  0.10642782  0.95195501     0.39700
C542        C  0.82124987  0.28173573  0.04900284     0.36300
C543        C  0.67717375  0.22036773  0.05989489     0.36100
C544        C  0.71125094  0.38622202  0.94570992     0.36800
N545        N  0.77212349  0.07175441  0.93113631    -0.44000
N546        N  0.82927810  0.31732037  0.06875865    -0.44400
N547        N  0.71917922  0.41988892  0.92283843    -0.41800
N548        N  0.67072088  0.18776866  0.08471096    -0.43200
H549        H  0.61781634  0.29342120  0.04788046     0.12900
H550        H  0.76854164  0.31175352  0.95564190     0.09400
H551        H  0.72240963  0.17894283  0.96423072     0.10500
H552        H  0.88094657  0.20896194  0.03845795     0.16300
C553        C  0.26360287  0.68959247  0.97904209    -0.01900
C554        C  0.27095099  0.73377547  0.00248787     0.06700
C555        C  0.31360191  0.74126414  0.02783737    -0.07900
C556        C  0.34902157  0.70569771  0.02966680     0.04100
C557        C  0.34216160  0.66163257  0.00536151    -0.15100
C558        C  0.29890132  0.65398961  0.98084143    -0.08400
C559        C  0.23385679  0.77196022  0.00206703     0.05100
C560        C  0.19004684  0.76321693  0.02478682    -0.09500
C561        C  0.15370736  0.79772624  0.02487870     0.00100
C562        C  0.16070314  0.84220025  0.00140770    -0.00100
C563        C  0.20509991  0.85115994  0.97931964    -0.13100
C564        C  0.24149790  0.81651864  0.97948159     0.00400
C565        C  0.11054644  0.78704841  0.05119785     0.39700
C566        C  0.28588144  0.82680490  0.95509892     0.36300
C567        C  0.22088842  0.68074025  0.95133334     0.36100
C568        C  0.39105420  0.71469059  0.05837147     0.36800
N569        N  0.07606283  0.77842220  0.07242655    -0.44000
N570        N  0.32153305  0.83475610  0.93558497    -0.44400
N571        N  0.42464329  0.72176322  0.08154033    -0.41800
N572        N  0.18674109  0.67383249  0.92895299    -0.43200
H573        H  0.29308375  0.62051821  0.96192031     0.12900
H574        H  0.31895745  0.77485464  0.04670122     0.09400
H575        H  0.18441295  0.72928142  0.04291868     0.10500
H576        H  0.21121041  0.88503719  0.96125746     0.16300
C577        C  0.19241108  0.23439175  0.96284533    -0.01900
C578        C  0.23395509  0.22986246  0.99117141     0.06700
C579        C  0.23916389  0.18975520  0.02092096    -0.07900
C580        C  0.20343733  0.15463612  0.02334993     0.04100
C581        C  0.16130486  0.15940115  0.99560332    -0.15100
C582        C  0.15645360  0.19940313  0.96540143    -0.08400
C583        C  0.27118849  0.26777566  0.99250716     0.05100
C584        C  0.26252650  0.30935959  0.01944478    -0.09500
C585        C  0.29717733  0.34549403  0.02312638     0.00100
C586        C  0.34126727  0.34065312  0.99877400    -0.00100
C587        C  0.35006573  0.29852297  0.97242464    -0.13100
C588        C  0.31567581  0.26212224  0.96942112     0.00400
C589        C  0.28748136  0.38597762  0.05392486     0.39700
C590        C  0.32690357  0.21933691  0.94252392     0.36300
C591        C  0.18607471  0.27432500  0.93056761     0.36100
C592        C  0.21003376  0.11524398  0.05627408     0.36800
N593        N  0.28003896  0.41839718  0.07873339    -0.44000
N594        N  0.33633856  0.18507272  0.92109502    -0.44400
N595        N  0.21521858  0.08369904  0.08268592    -0.41800
N596        N  0.18065836  0.30609135  0.90445363    -0.43200
H597        H  0.12473339  0.20306311  0.94333517     0.12900
H598        H  0.27089291  0.18640264  0.04303771     0.09400
H599        H  0.22883080  0.31315917  0.03834606     0.10500
H600        H  0.38383592  0.29410737  0.95378053     0.16300
C601        C  0.68528847  0.00852676  0.74213031    -0.01900
C602        C  0.73059197  0.98829406  0.73244345     0.06700
C603        C  0.73974187  0.96984270  0.68657780    -0.07900
C604        C  0.70556941  0.97300075  0.65006379     0.04100
C605        C  0.66038465  0.99420111  0.65940190    -0.15100
C606        C  0.65077820  0.01116911  0.70587049    -0.08400
C607        C  0.76935800  0.98777863  0.76910923     0.07900
C608        C  0.76099316  0.96629151  0.81381552    -0.09500
C609        C  0.79518161  0.96841764  0.85045018     0.00100
C610        C  0.83962967  0.99141246  0.84220325    -0.00100
C611        C  0.84855886  0.01121527  0.79676521    -0.13100
C612        C  0.81395705  0.00994811  0.76058848     0.00400
C613        C  0.78353770  0.94618957  0.89573704     0.39700
C614        C  0.82453757  0.03340607  0.71568971     0.36300
C615        C  0.67372586  0.02799837  0.78867386     0.36100
C616        C  0.71801387  0.95344284  0.60377013     0.36800
N617        N  0.77384486  0.92861723  0.93202998    -0.44000
N618        N  0.83308521  0.05209082  0.67967453    -0.44400
N619        N  0.72828506  0.93803899  0.56666126    -0.41800
N620        N  0.66462205  0.04318391  0.82618442    -0.43200
H621        H  0.61641656  0.02740339  0.71380780     0.12900
H622        H  0.77406527  0.95326952  0.67913378     0.09400
H623        H  0.72723565  0.94828157  0.82033148     0.10500
H624        H  0.88232923  0.02900659  0.78975304     0.16300
C625        C  0.23953445  0.02485903  0.81689558    -0.01900
C626        C  0.23231911  0.00591839  0.77066383     0.06700
C627        C  0.18862531  0.98393247  0.75960461    -0.07900
C628        C  0.15199150  0.98086480  0.79368740     0.04100
C629        C  0.15874088  0.00053260  0.84000023    -0.15100
C630        C  0.20291028  0.02213816  0.85095527    -0.08400
C631        C  0.27042855  0.00678959  0.73373030     0.05100
C632        C  0.31088992  0.97796507  0.74024066    -0.09500
C633        C  0.34638030  0.97515516  0.70500423     0.00100
C634        C  0.34164235  0.00161253  0.66195919    -0.00100
C635        C  0.30115166  0.03098679  0.65579003    -0.13100
C636        C  0.26571631  0.03379168  0.69131424     0.00400
C637        C  0.38608577  0.94313184  0.71339133     0.39700
C638        C  0.22494446  0.06479004  0.68400627     0.36300
C639        C  0.28383090  0.04799851  0.83003143     0.36100
C640        C  0.10884066  0.95567673  0.78048037     0.36800
N641        N  0.41762038  0.91726833  0.72069750    -0.44000
N642        N  0.19200372  0.08939122  0.67877584    -0.44400
N643        N  0.07439881  0.93535931  0.76971724    -0.41800
N644        N  0.31919341  0.06658060  0.84093262    -0.43200
H645        H  0.20876294  0.03760322  0.88613761     0.12900
H646        H  0.18344308  0.96847033  0.72430360     0.09400
H647        H  0.31421681  0.95676390  0.77266103     0.10500
H648        H  0.29739935  0.05211089  0.62338245     0.16300
C649        C  0.31209688  0.02526458  0.26350474    -0.01900
C650        C  0.27115165  0.99601622  0.26749036     0.06700
C651        C  0.26657516  0.96537135  0.30698544    -0.07900
C652        C  0.30129152  0.96429173  0.34302032     0.04100
C653        C  0.34186840  0.99437074  0.33984417    -0.15100
C654        C  0.34712359  0.02405366  0.29942391    -0.08400
C655        C  0.23298880  0.99596322  0.23052256     0.05100
C656        C  0.24419857  0.98154326  0.18374149    -0.09500
C657        C  0.20914611  0.98032526  0.14791719     0.00100
C658        C  0.16148211  0.99423995  0.15864322    -0.00100
C659        C  0.15004983  0.00522370  0.20646781    -0.13100
C660        C  0.18526149  0.00753077  0.24191655     0.00400
C661        C  0.22294180  0.96171891  0.10162690     0.39700
C662        C  0.17168350  0.02347443  0.28927964     0.36300
C663        C  0.31807034  0.05778121  0.22366246     0.36100
C664        C  0.29492739  0.93044698  0.38157962     0.36800
N665        N  0.23424699  0.94623412  0.06484092    -0.44000
N666        N  0.16060629  0.03656392  0.32704986    -0.44400
N667        N  0.28887158  0.90279526  0.41186213    -0.41800
N668        N  0.32248770  0.08369470  0.19158090    -0.43200
H669        H  0.37814397  0.04720373  0.29642616     0.12900
H670        H  0.23573478  0.94190683  0.30947444     0.09400
H671        H  0.28048630  0.97057945  0.17535899     0.10500
H672        H  0.11340823  0.01233529  0.21639917     0.16300
C673        C  0.81359699  0.98165699  0.23998416    -0.01900
C674        C  0.76956121  0.00504686  0.23224299     0.06700
C675        C  0.76144664  0.02834472  0.18854062    -0.07900
C676        C  0.79639472  0.02862317  0.15258174     0.04100
C677        C  0.84063826  0.00491145  0.16007868    -0.15100
C678        C  0.84862974  0.98175121  0.20406980    -0.08400
C679        C  0.73145778  0.00567407  0.26929820     0.05100
C680        C  0.73729779  0.03432369  0.31018773    -0.09500
C681        C  0.70215706  0.03558402  0.34607200     0.00100
C682        C  0.66045337  0.00712321  0.34154679    -0.00100
C683        C  0.65435779  0.97942033  0.29994427    -0.13100
C684        C  0.68924431  0.97861982  0.26395611     0.00400
C685        C  0.70892053  0.06808329  0.38578570     0.39700
C686        C  0.68123134  0.94914352  0.22220010     0.36300
C687        C  0.82329765  0.95660938  0.28417118     0.36100
C688        C  0.78626445  0.05501443  0.10921696     0.36800
N689        N  0.71466391  0.09457816  0.41717840    -0.44000
N690        N  0.67451772  0.92556508  0.18874513    -0.44400
N691        N  0.77786140  0.07625386  0.07461390    -0.41800
N692        N  0.83123454  0.93650384  0.31955124    -0.43200
H693        H  0.88211646  0.96308849  0.21022791     0.12900
H694        H  0.72774339  0.04673409  0.18271607     0.09400
H695        H  0.76923104  0.05610963  0.31378576     0.10500
H696        H  0.62250973  0.95761409  0.29584670     0.16300
C697        C  0.01787867  0.18439843  0.76070467    -0.01900
C698        C  0.99591111  0.22935203  0.76769420     0.06700
C699        C  0.97110915  0.23840048  0.81043907    -0.07900
C700        C  0.96876096  0.20366357  0.84654370     0.04100
C701        C  0.99216399  0.15906651  0.84012893    -0.15100
C702        C  0.01588396  0.14982153  0.79677551    -0.08400
C703        C  0.99763481  0.26698792  0.73034947     0.05100
C704        C  0.97570702  0.25814815  0.68615156    -0.09500
C705        C  0.97716338  0.29215708  0.64942165     0.00100
C706        C  0.99960246  0.33701809  0.65724888    -0.00100
C707        C  0.02147126  0.34574929  0.70185237    -0.13100
C708        C  0.02132012  0.31090214  0.73797272     0.00400
C709        C  0.95490963  0.27970602  0.60446381     0.39700
C710        C  0.04765922  0.31990168  0.78158794     0.36300
C711        C  0.04389546  0.17333474  0.71739901     0.36100
C712        C  0.94053788  0.21415084  0.88868252     0.36800
N713        N  0.93745238  0.26892435  0.56846329    -0.44000
N714        N  0.06918454  0.32670819  0.81634827    -0.44400
N715        N  0.91764173  0.22274695  0.92217006    -0.41800
N716        N  0.06469910  0.16424568  0.68271263    -0.43200
H717        H  0.03399772  0.11582529  0.79141972     0.12900
H718        H  0.95319529  0.27257398  0.81534563     0.09400
H719        H  0.95764832  0.22422628  0.68024704     0.10500
H720        H  0.03970732  0.37947915  0.70817564     0.16300
C721        C  0.01222430  0.75662170  0.81971367    -0.01900
C722        C  0.99485785  0.76544990  0.77306382     0.06700
C723        C  0.97670283  0.81098031  0.76201018    -0.07900
C724        C  0.97716889  0.84806909  0.79574894     0.04100
C725        C  0.99509156  0.83955600  0.84256365    -0.15100
C726        C  0.01179196  0.79333040  0.85395063    -0.08400
C727        C  0.99545507  0.72790179  0.73516829     0.05100
C728        C  0.97181751  0.68426884  0.74333953    -0.09500
C729        C  0.97148238  0.64804349  0.70855724     0.00100
C730        C  0.99513157  0.65534007  0.66424259    -0.00100
C731        C  0.01807020  0.69934874  0.65594603    -0.13100
C732        C  0.01839730  0.73543130  0.69070556     0.00400
C733        C  0.94493301  0.60479546  0.71881716     0.39700
C734        C  0.04300337  0.77963601  0.67980838     0.36300
C735        C  0.03239475  0.71078003  0.83284593     0.36100
C736        C  0.95852273  0.89404775  0.78085753     0.36800
N737        N  0.92352908  0.57030363  0.72728163    -0.44000
N738        N  0.06233175  0.81515334  0.67064437    -0.44400
N739        N  0.94389673  0.93079921  0.76833395    -0.41800
N740        N  0.04853564  0.67402433  0.84330446    -0.43200
H741        H  0.02583900  0.78602158  0.88942469     0.12900
H742        H  0.96230320  0.81767849  0.72654044     0.09400
H743        H  0.95301259  0.67873202  0.77689193     0.10500
H744        H  0.03641525  0.70549467  0.62224669     0.16300
C745        C  0.97476876  0.73698340  0.31187841    -0.01900
C746        C  0.00610568  0.73393063  0.27235739     0.06700
C747        C  0.03777596  0.69499151  0.26912699    -0.07900
C748        C  0.03808922  0.65906260  0.30425818     0.04100
C749        C  0.00587803  0.66158087  0.34327781    -0.15100
C750        C  0.97486106  0.70099066  0.34686131    -0.08400
C751        C  0.00615896  0.77117643  0.23420570     0.05100
C752        C  0.01890096  0.81832664  0.24597302    -0.09500
C753        C  0.01722363  0.85504084  0.21174233     0.00100
C754        C  0.00327613  0.84463675  0.16388932    -0.00100
C755        C  0.99077087  0.79704561  0.15240126    -0.13100
C756        C  0.99186258  0.76064664  0.18697210     0.00400
C757        C  0.03022163  0.90270210  0.22730511     0.39700
C758        C  0.97603556  0.71317732  0.17373406     0.36300
C759        C  0.94152958  0.77632350  0.31665343     0.36100
C760        C  0.07332888  0.62131974  0.30070983     0.36800
N761        N  0.04028423  0.94087508  0.24008596    -0.44000
N762        N  0.96307314  0.67516332  0.16336764    -0.44400
N763        N  0.10175339  0.59125813  0.29809984    -0.41800
N764        N  0.91520169  0.80815654  0.32020441    -0.43200
H765        H  0.95008902  0.70328828  0.37669689     0.12900
H766        H  0.06260104  0.69296677  0.23931329     0.09400
H767        H  0.02979945  0.82653843  0.28237352     0.10500
H768        H  0.97919138  0.78817841  0.11639616     0.16300
C769        C  0.96939344  0.24610505  0.17960506    -0.01900
C770        C  0.99593283  0.24332714  0.22244180     0.06700
C771        C  0.02328021  0.20240286  0.23171910    -0.07900
C772        C  0.02511749  0.16455294  0.19905025     0.04100
C773        C  0.99899326  0.16689633  0.15581850    -0.15100
C774        C  0.97138034  0.20818065  0.14654070    -0.08400
C775        C  0.99602181  0.28205392  0.25880479     0.05100
C776        C  0.95412465  0.29141750  0.28487917    -0.09500
C777        C  0.95448062  0.32393538  0.32313971     0.00100
C778        C  0.99764280  0.34641476  0.33643112    -0.00100
C779        C  0.03902946  0.33848089  0.30932848    -0.13100
C780        C  0.03851501  0.30671352  0.27059007     0.00400
C781        C  0.90986003  0.33541994  0.34657271     0.39700
C782        C  0.08178851  0.30052387  0.24301045     0.36300
C783        C  0.94059115  0.28766443  0.16863348     0.36100
C784        C  0.05629698  0.12520769  0.21026311     0.36800
N785        N  0.87381053  0.34498135  0.36460688    -0.44000
N786        N  0.11647804  0.29581420  0.22087059    -0.44400
N787        N  0.08205526  0.09454265  0.22050955    -0.41800
N788        N  0.91742897  0.32096684  0.16000630    -0.43200
H789        H  0.95096972  0.21068011  0.11358718     0.12900
H790        H  0.04366699  0.20021796  0.26474151     0.09400
H791        H  0.92127269  0.27297798  0.27556518     0.10500
H792        H  0.07177312  0.35726575  0.31843068     0.16300
loop_ 
_geom_bond_atom_site_label_1 
_geom_bond_atom_site_label_2 
_geom_bond_distance 
_geom_bond_site_symmetry_2 
_ccdc_geom_bond_type 
O1          Zr37   2.460       .  S
O1           C12   1.297       .  A
O2          Zr36   2.440   1_545  S
O2           C13   1.293       .  A
O3           Zr9   2.461   1_455  S
O3           C14   1.296       .  A
O4           Zr9   2.455       .  S
O4           C15   1.296       .  A
O5          Zr39   2.422   1_556  S
O5           C15   1.289       .  A
O6          Zr38   2.427       .  S
O6           C14   1.290       .  A
O7           Zr9   2.418       .  S
O7           C13   1.289       .  A
O8           Zr9   2.427   1_554  S
O8           C12   1.290   1_655  A
Zr9          O10   2.343       .  S
Zr9          O11   2.345   1_656  S
Zr9          O19   2.339   1_556  S
Zr9          O17   2.342   1_655  S
O10         Zr36   2.336   1_545  S
O10         Zr39   2.338   1_556  S
O11         Zr37   2.344       .  S
O11         Zr38   2.347   1_554  S
C12         C773   1.487   1_455  S
C13         C701   1.477       .  S
C14         C581   1.485       .  S
C15         C538   1.487       .  S
H16          O17   0.965       .  S
O17         Zr36   2.338   1_445  S
O17         Zr38   2.341       .  S
H18          O19   0.965       .  S
O19         Zr37   2.337   1_655  S
O19         Zr39   2.344       .  S
O20         Zr36   2.430       .  S
O20          C43   1.290       .  A
O21         Zr37   2.437   1_565  S
O21          C44   1.292       .  A
O22         Zr38   2.433       .  S
O22          C45   1.292   1_545  A
O23         Zr39   2.438   1_566  S
O23          C46   1.292       .  A
O24         Zr39   2.425       .  S
O24          C47   1.290       .  A
O25         Zr38   2.436   1_564  S
O25          C48   1.291       .  A
O26         Zr40   2.441       .  S
O26          C49   1.293       .  A
O27         Zr40   2.443   1_655  S
O27          C50   1.293       .  A
O28         Zr38   2.436   1_565  S
O28          C49   1.292   1_556  A
O29         Zr39   2.437   1_565  S
O29          C50   1.291       .  A
O30         Zr36   2.441   1_455  S
O30          C45   1.293       .  A
O31         Zr37   2.444       .  S
O31          C48   1.294   1_545  A
O32         Zr37   2.450   1_655  S
O32          C47   1.295       .  A
O33         Zr36   2.438       .  S
O33          C46   1.293       .  A
O34         Zr40   2.446   1_656  S
O34          C43   1.295       .  A
O35         Zr40   2.445       .  S
O35          C44   1.295       .  A
Zr36         O42   2.342   1_655  S
Zr36         O54   2.341       .  S
Zr37         O41   2.344   1_445  S
Zr37         O52   2.345   1_545  S
Zr38         O42   2.338   1_545  S
Zr38         O52   2.334   1_546  S
Zr39         O41   2.334   1_545  S
Zr39         O54   2.330   1_544  S
Zr40         O41   2.340   1_455  S
Zr40         O42   2.342   1_554  S
Zr40         O54   2.335   1_454  S
Zr40         O52   2.337       .  S
C43         C725   1.489       .  S
C44         C754   1.495       .  S
C45         C629   1.487   1_565  S
C46         C610   1.487       .  S
C47         C677   1.485       .  S
C48         C658   1.493       .  S
C49         C562   1.488       .  S
C50         C509   1.484       .  S
H51          O52   0.965       .  S
H53          O54   0.965       .  S
O55         Zr91   2.418       .  S
O55          C66   1.287   1_455  A
O56         Zr90   2.436   1_455  S
O56          C67   1.292       .  A
O57         Zr63   2.437       .  S
O57          C68   1.293       .  A
O58         Zr63   2.437   1_655  S
O58          C69   1.292       .  A
O59         Zr93   2.445       .  S
O59          C69   1.294       .  A
O60         Zr92   2.436       .  S
O60          C68   1.292       .  A
O61         Zr63   2.440       .  S
O61          C67   1.292       .  A
O62         Zr63   2.450   1_655  S
O62          C66   1.294       .  A
Zr63         O64   2.337   1_455  S
Zr63         O65   2.340       .  S
Zr63         O73   2.339   1_455  S
Zr63         O71   2.344       .  S
O64         Zr90   2.335       .  S
O64         Zr93   2.342       .  S
O65         Zr91   2.338       .  S
O65         Zr92   2.343       .  S
C66         C778   1.466       .  S
C67         C706   1.485   1_455  S
C68         C365   1.477       .  S
C69         C322   1.491       .  S
H70          O71   0.967       .  S
O71         Zr90   2.339   1_455  S
O71         Zr92   2.342       .  S
H72          O73   0.968       .  S
O73         Zr91   2.339   1_655  S
O73         Zr93   2.338       .  S
O74         Zr90   2.430       .  S
O74          C97   1.290       .  A
O75         Zr91   2.429       .  S
O75          C98   1.290       .  A
O76         Zr92   2.440       .  S
O76          C99   1.293       .  A
O77         Zr93   2.442       .  S
O77         C100   1.293       .  A
O78         Zr93   2.447       .  S
O78         C101   1.294       .  A
O79         Zr92   2.441       .  S
O79         C102   1.293       .  A
O80         Zr94   2.436       .  S
O80         C103   1.292       .  A
O81         Zr94   2.431   1_655  S
O81         C104   1.291       .  A
O82         Zr92   2.439       .  S
O82         C103   1.292       .  A
O83         Zr93   2.446       .  S
O83         C104   1.294       .  A
O84         Zr90   2.437   1_455  S
O84          C99   1.291       .  A
O85         Zr91   2.440       .  S
O85         C102   1.292       .  A
O86         Zr91   2.442   1_655  S
O86         C101   1.293       .  A
O87         Zr90   2.438       .  S
O87         C100   1.292       .  A
O88         Zr94   2.445   1_655  S
O88          C97   1.294       .  A
O89         Zr94   2.449       .  S
O89          C98   1.294       .  A
Zr90         O96   2.342   1_655  S
Zr90        O108   2.345       .  S
Zr91         O95   2.337   1_455  S
Zr91        O106   2.339       .  S
Zr92         O96   2.341       .  S
Zr92        O106   2.339       .  S
Zr93         O95   2.339       .  S
Zr93        O108   2.342       .  S
Zr94         O95   2.338   1_455  S
Zr94         O96   2.341       .  S
Zr94        O108   2.344   1_455  S
Zr94        O106   2.340       .  S
C97         C730   1.484       .  S
C98         C749   1.480       .  S
C99         C461   1.489       .  S
C100        C485   1.482       .  S
C101        C413   1.490       .  S
C102        C437   1.480       .  S
C103        C389   1.480       .  S
C104        C346   1.482       .  S
H105        O106   0.967       .  S
H107        O108   0.968       .  S
O109       Zr145   2.439       .  S
O109        C120   1.292       .  A
O110       Zr144   2.452       .  S
O110        C121   1.295       .  A
O111       Zr117   2.451       .  S
O111        C122   1.295       .  A
O112       Zr117   2.445   1_545  S
O112        C123   1.294       .  A
O113       Zr147   2.435       .  S
O113        C123   1.292       .  A
O114       Zr146   2.430       .  S
O114        C122   1.291       .  A
O115       Zr117   2.436       .  S
O115        C121   1.292       .  A
O116       Zr117   2.450   1_545  S
O116        C120   1.295       .  A
Zr117       O118   2.347   1_565  S
Zr117       O119   2.339       .  S
Zr117       O127   2.337   1_565  S
Zr117       O125   2.343       .  S
O118       Zr144   2.340   1_545  S
O118       Zr147   2.344       .  S
O119       Zr145   2.340   1_565  S
O119       Zr146   2.345       .  S
C120        C682   1.485       .  S
C121        C653   1.483       .  S
C122        C245   1.488       .  S
C123        C226   1.490       .  S
H124        O125   0.966       .  S
O125       Zr144   2.342       .  S
O125       Zr146   2.336       .  S
H126        O127   0.966       .  S
O127       Zr145   2.336       .  S
O127       Zr147   2.340       .  S
O128       Zr144   2.456       .  S
O128        C151   1.295       .  A
O129       Zr145   2.429       .  S
O129        C152   1.290   1_545  A
O130       Zr146   2.439       .  S
O130        C153   1.292       .  A
O131       Zr147   2.443       .  S
O131        C154   1.294       .  A
O132       Zr147   2.442       .  S
O132        C155   1.293       .  A
O133       Zr146   2.440       .  S
O133        C156   1.293       .  A
O134       Zr148   2.433       .  S
O134        C157   1.291       .  A
O135       Zr148   2.432   1_545  S
O135        C158   1.291       .  A
O136       Zr146   2.436       .  S
O136        C157   1.292       .  A
O137       Zr147   2.447       .  S
O137        C158   1.294       .  A
O138       Zr144   2.425       .  S
O138        C153   1.290       .  A
O139       Zr145   2.438   1_565  S
O139        C156   1.292       .  A
O140       Zr145   2.437       .  S
O140        C155   1.293       .  A
O141       Zr144   2.429   1_545  S
O141        C154   1.290       .  A
O142       Zr148   2.434       .  S
O142        C151   1.292       .  A
O143       Zr148   2.445       .  S
O143        C152   1.294       .  A
Zr144       O150   2.340       .  S
Zr144       O162   2.339   1_565  S
Zr145       O149   2.341       .  S
Zr145       O160   2.344   1_545  S
Zr146       O150   2.338       .  S
Zr146       O160   2.339       .  S
Zr147       O149   2.342       .  S
Zr147       O162   2.334       .  S
Zr148       O149   2.340   1_565  S
Zr148       O150   2.340       .  S
Zr148       O162   2.340   1_565  S
Zr148       O160   2.339       .  S
C151        C634   1.485   1_565  S
C152        C605   1.488       .  S
C153        C394   1.484       .  S
C154        C370   1.489       .  S
C155        C317   1.487       .  S
C156        C341   1.491       .  S
C157        C269   1.478       .  S
C158        C298   1.483       .  S
H159        O160   0.966       .  S
H161        O162   0.966       .  S
O163       Zr199   2.427       .  S
O163        C174   1.290   1_556  A
O164       Zr198   2.444       .  S
O164        C175   1.293       .  A
O165       Zr171   2.427       .  S
O165        C176   1.290       .  A
O166       Zr171   2.430   1_556  S
O166        C177   1.291       .  A
O167       Zr201   2.445       .  S
O167        C177   1.293       .  A
O168       Zr200   2.449       .  S
O168        C176   1.295       .  A
O169       Zr171   2.442       .  S
O169        C175   1.293       .  A
O170       Zr171   2.450       .  S
O170        C174   1.294       .  A
Zr171       O172   2.340   1_554  S
Zr171       O173   2.337       .  S
Zr171       O181   2.338   1_554  S
Zr171       O179   2.341       .  S
O172       Zr198   2.338   1_556  S
O172       Zr201   2.337       .  S
O173       Zr199   2.338   1_554  S
O173       Zr200   2.339       .  S
C174        C586   1.485   1_554  S
C175        C557   1.487       .  S
C176        C442   1.490       .  S
C177        C466   1.481       .  S
H178        O179   0.965       .  S
O179       Zr198   2.342       .  S
O179       Zr200   2.339       .  S
H180        O181   0.965       .  S
O181       Zr199   2.345       .  S
O181       Zr201   2.341       .  S
O182       Zr198   2.446   1_556  S
O182        C205   1.294   1_556  A
O183       Zr199   2.435   1_554  S
O183        C206   1.292       .  A
O184       Zr200   2.435       .  S
O184        C207   1.292       .  A
O185       Zr201   2.434       .  S
O185        C208   1.292       .  A
O186       Zr201   2.435       .  S
O186        C209   1.292       .  A
O187       Zr200   2.441       .  S
O187        C210   1.293       .  A
O188       Zr202   2.438   1_554  S
O188        C211   1.292       .  A
O189       Zr202   2.441       .  S
O189        C212   1.293       .  A
O190       Zr200   2.447       .  S
O190        C211   1.294       .  A
O191       Zr201   2.443       .  S
O191        C212   1.293       .  A
O192       Zr198   2.434       .  S
O192        C207   1.292       .  A
O193       Zr199   2.440   1_554  S
O193        C210   1.292       .  A
O194       Zr199   2.436       .  S
O194        C209   1.292       .  A
O195       Zr198   2.440   1_556  S
O195        C208   1.293       .  A
O196       Zr202   2.432   1_554  S
O196        C205   1.291       .  A
O197       Zr202   2.432   1_554  S
O197        C206   1.291       .  A
Zr198       O204   2.338       .  S
Zr198       O216   2.342   1_554  S
Zr199       O203   2.339       .  S
Zr199       O214   2.339   1_556  S
Zr200       O204   2.341       .  S
Zr200       O214   2.340       .  S
Zr201       O203   2.341       .  S
Zr201       O216   2.342       .  S
Zr202       O203   2.338       .  S
Zr202       O204   2.337   1_556  S
Zr202       O216   2.345       .  S
Zr202       O214   2.341   1_556  S
C205        C514   1.487       .  S
C206        C533   1.480       .  S
C207        C250   1.476       .  S
C208        C274   1.479       .  S
C209        C293   1.483       .  S
C210        C221   1.486       .  S
C211        C418   1.487       .  S
C212        C490   1.489       .  S
H213        O214   0.967       .  S
H215        O216   0.966       .  S
C217        C218   1.410       .  A
C217        C222   1.401       .  A
C217        C231   1.444       .  S
C218        C223   1.487       .  S
C218        C219   1.402       .  A
C219        C220   1.401       .  A
C219        H238   1.085       .  S
C220        C221   1.416       .  A
C220        C232   1.444       .  S
C221        C222   1.407       .  A
C222        H237   1.085       .  S
C223        C224   1.401       .  A
C223        C228   1.410       .  A
C224        C225   1.401       .  A
C224        H239   1.085       .  S
C225        C226   1.419       .  A
C225        C229   1.445       .  S
C226        C227   1.408       .  A
C227        C228   1.401       .  A
C227        H240   1.085       .  S
C228        C230   1.444       .  S
C229        N233   1.157       .  T
C230        N234   1.157       .  T
C231        N236   1.157       .  T
C232        N235   1.157       .  T
C241        C242   1.407       .  A
C241        C246   1.401       .  A
C241        C255   1.444       .  S
C242        C247   1.479       .  S
C242        C243   1.399       .  A
C243        C244   1.400       .  A
C243        H262   1.085       .  S
C244        C245   1.419       .  A
C244        C256   1.444       .  S
C245        C246   1.408       .  A
C246        H261   1.084       .  S
C247        C248   1.401       .  A
C247        C252   1.408       .  A
C248        C249   1.400       .  A
C248        H263   1.085       .  S
C249        C250   1.413       .  A
C249        C253   1.444       .  S
C250        C251   1.404       .  A
C251        C252   1.399       .  A
C251        H264   1.085       .  S
C252        C254   1.444       .  S
C253        N257   1.157       .  T
C254        N258   1.157       .  T
C255        N260   1.157       .  T
C256        N259   1.157       .  T
C265        C266   1.408       .  A
C265        C270   1.398       .  A
C265        C279   1.444       .  S
C266        C271   1.476       .  S
C266        C267   1.399       .  A
C267        C268   1.399       .  A
C267        H286   1.085       .  S
C268        C269   1.415       .  A
C268        C280   1.443       .  S
C269        C270   1.405       .  A
C270        H285   1.085       .  S
C271        C272   1.400       .  A
C271        C276   1.408       .  A
C272        C273   1.400       .  A
C272        H287   1.085       .  S
C273        C274   1.415       .  A
C273        C277   1.444       .  S
C274        C275   1.405       .  A
C275        C276   1.399       .  A
C275        H288   1.085       .  S
C276        C278   1.444       .  S
C277        N281   1.157       .  T
C278        N282   1.157       .  T
C279        N284   1.157       .  T
C280        N283   1.157       .  T
C289        C290   1.407       .  A
C289        C294   1.399       .  A
C289        C303   1.444       .  S
C290        C295   1.481       .  S
C290        C291   1.401       .  A
C291        C292   1.400       .  A
C291        H310   1.085       .  S
C292        C293   1.417       .  A
C292        C304   1.445       .  S
C293        C294   1.407       .  A
C294        H309   1.085       .  S
C295        C296   1.400       .  A
C295        C300   1.408       .  A
C296        C297   1.400       .  A
C296        H311   1.085       .  S
C297        C298   1.418       .  A
C297        C301   1.445       .  S
C298        C299   1.406       .  A
C299        C300   1.400       .  A
C299        H312   1.085       .  S
C300        C302   1.444       .  S
C301        N305   1.157       .  T
C302        N306   1.157       .  T
C303        N308   1.157       .  T
C304        N307   1.158       .  T
C313        C314   1.412       .  A
C313        C318   1.400       .  A
C313        C327   1.444       .  S
C314        C319   1.491       .  S
C314        C315   1.404       .  A
C315        C316   1.403       .  A
C315        H334   1.085       .  S
C316        C317   1.416       .  A
C316        C328   1.445       .  S
C317        C318   1.406       .  A
C318        H333   1.085       .  S
C319        C320   1.403       .  A
C319        C324   1.411       .  A
C320        C321   1.401       .  A
C320        H335   1.085       .  S
C321        C322   1.419       .  A
C321        C325   1.444       .  S
C322        C323   1.407       .  A
C323        C324   1.401       .  A
C323        H336   1.085       .  S
C324        C326   1.444       .  S
C325        N329   1.157       .  T
C326        N330   1.157       .  T
C327        N332   1.157       .  T
C328        N331   1.157       .  T
C337        C338   1.410       .  A
C337        C342   1.401       .  A
C337        C351   1.445       .  S
C338        C343   1.485       .  S
C338        C339   1.400       .  A
C339        C340   1.400       .  A
C339        H358   1.085       .  S
C340        C341   1.419       .  A
C340        C352   1.445       .  S
C341        C342   1.409       .  A
C342        H357   1.084       .  S
C343        C344   1.402       .  A
C343        C348   1.410       .  A
C344        C345   1.401       .  A
C344        H359   1.085       .  S
C345        C346   1.414       .  A
C345        C349   1.444       .  S
C346        C347   1.406       .  A
C347        C348   1.400       .  A
C347        H360   1.085       .  S
C348        C350   1.444       .  S
C349        N353   1.157       .  T
C350        N354   1.157       .  T
C351        N356   1.157       .  T
C352        N355   1.157       .  T
C361        C362   1.409       .  A
C361        C366   1.399       .  A
C361        C375   1.444       .  S
C362        C367   1.483       .  S
C362        C363   1.403       .  A
C363        C364   1.400       .  A
C363        H382   1.085       .  S
C364        C365   1.413       .  A
C364        C376   1.445       .  S
C365        C366   1.405       .  A
C366        H381   1.085       .  S
C367        C368   1.401       .  A
C367        C372   1.407       .  A
C368        C369   1.401       .  A
C368        H383   1.085       .  S
C369        C370   1.420       .  A
C369        C373   1.445       .  S
C370        C371   1.408       .  A
C371        C372   1.399       .  A
C371        H384   1.084       .  S
C372        C374   1.444       .  S
C373        N377   1.158       .  T
C374        N378   1.157       .  T
C375        N380   1.157       .  T
C376        N379   1.157       .  T
C385        C386   1.409       .  A
C385        C390   1.400       .  A
C385        C399   1.445       .  S
C386        C391   1.478       .  S
C386        C387   1.400       .  A
C387        C388   1.397       .  A
C387        H406   1.085       .  S
C388        C389   1.415       .  A
C388        C400   1.444       .  S
C389        C390   1.406       .  A
C390        H405   1.085       .  S
C391        C392   1.400       .  A
C391        C396   1.408       .  A
C392        C393   1.398       .  A
C392        H407   1.085       .  S
C393        C394   1.417       .  A
C393        C397   1.445       .  S
C394        C395   1.408       .  A
C395        C396   1.397       .  A
C395        H408   1.085       .  S
C396        C398   1.445       .  S
C397        N401   1.157       .  T
C398        N402   1.157       .  T
C399        N404   1.157       .  T
C400        N403   1.157       .  T
C409        C410   1.409       .  A
C409        C414   1.402       .  A
C409        C423   1.444       .  S
C410        C415   1.486       .  S
C410        C411   1.401       .  A
C411        C412   1.402       .  A
C411        H430   1.085       .  S
C412        C413   1.418       .  A
C412        C424   1.444       .  S
C413        C414   1.408       .  A
C414        H429   1.085       .  S
C415        C416   1.402       .  A
C415        C420   1.410       .  A
C416        C417   1.401       .  A
C416        H431   1.085       .  S
C417        C418   1.415       .  A
C417        C421   1.444       .  S
C418        C419   1.407       .  A
C419        C420   1.403       .  A
C419        H432   1.085       .  S
C420        C422   1.444       .  S
C421        N425   1.157       .  T
C422        N426   1.157       .  T
C423        N428   1.157       .  T
C424        N427   1.157       .  T
C433        C434   1.411       .  A
C433        C438   1.402       .  A
C433        C447   1.443       .  S
C434        C439   1.486       .  S
C434        C435   1.403       .  A
C435        C436   1.402       .  A
C435        H454   1.085       .  S
C436        C437   1.412       .  A
C436        C448   1.444       .  S
C437        C438   1.404       .  A
C438        H453   1.085       .  S
C439        C440   1.401       .  A
C439        C444   1.409       .  A
C440        C441   1.403       .  A
C440        H455   1.085       .  S
C441        C442   1.420       .  A
C441        C445   1.446       .  S
C442        C443   1.406       .  A
C443        C444   1.401       .  A
C443        H456   1.085       .  S
C444        C446   1.443       .  S
C445        N449   1.158       .  T
C446        N450   1.157       .  T
C447        N452   1.157       .  T
C448        N451   1.157       .  T
C457        C458   1.409       .  A
C457        C462   1.400       .  A
C457        C471   1.445       .  S
C458        C463   1.482       .  S
C458        C459   1.399       .  A
C459        C460   1.398       .  A
C459        H478   1.085       .  S
C460        C461   1.419       .  A
C460        C472   1.444       .  S
C461        C462   1.409       .  A
C462        H477   1.085       .  S
C463        C464   1.401       .  A
C463        C468   1.409       .  A
C464        C465   1.399       .  A
C464        H479   1.085       .  S
C465        C466   1.414       .  A
C465        C469   1.443       .  S
C466        C467   1.406       .  A
C467        C468   1.399       .  A
C467        H480   1.085       .  S
C468        C470   1.445       .  S
C469        N473   1.157       .  T
C470        N474   1.157       .  T
C471        N476   1.157       .  T
C472        N475   1.157       .  T
C481        C482   1.410       .  A
C481        C486   1.401       .  A
C481        C495   1.443       .  S
C482        C487   1.484       .  S
C482        C483   1.402       .  A
C483        C484   1.401       .  A
C483        H502   1.085       .  S
C484        C485   1.415       .  A
C484        C496   1.444       .  S
C485        C486   1.405       .  A
C486        H501   1.085       .  S
C487        C488   1.401       .  A
C487        C492   1.409       .  A
C488        C489   1.401       .  A
C488        H503   1.085       .  S
C489        C490   1.417       .  A
C489        C493   1.444       .  S
C490        C491   1.408       .  A
C491        C492   1.402       .  A
C491        H504   1.085       .  S
C492        C494   1.444       .  S
C493        N497   1.157       .  T
C494        N498   1.157       .  T
C495        N500   1.157       .  T
C496        N499   1.157       .  T
C505        C506   1.409   1_556  A
C505        C510   1.400       .  A
C505        C519   1.444       .  S
C506        C511   1.485       .  S
C506        C507   1.402       .  A
C507        C508   1.402       .  A
C507        H526   1.085       .  S
C508        C509   1.416       .  A
C508        C520   1.444       .  S
C509        C510   1.406   1_554  A
C510        H525   1.085       .  S
C511        C512   1.401       .  A
C511        C516   1.409   1_554  A
C512        C513   1.401       .  A
C512        H527   1.085       .  S
C513        C514   1.418       .  A
C513        C517   1.445       .  S
C514        C515   1.407   1_554  A
C515        C516   1.401       .  A
C515        H528   1.085       .  S
C516        C518   1.444       .  S
C517        N521   1.157       .  T
C518        N522   1.157       .  T
C519        N524   1.157       .  T
C520        N523   1.157       .  T
C529        C530   1.410       .  A
C529        C534   1.401       .  A
C529        C543   1.444       .  S
C530        C535   1.482       .  S
C530        C531   1.401   1_554  A
C531        C532   1.398       .  A
C531        H550   1.085       .  S
C532        C533   1.414   1_556  A
C532        C544   1.444       .  S
C533        C534   1.406       .  A
C534        H549   1.085       .  S
C535        C536   1.400   1_554  A
C535        C540   1.409       .  A
C536        C537   1.400       .  A
C536        H551   1.085       .  S
C537        C538   1.420       .  A
C537        C541   1.445       .  S
C538        C539   1.406   1_556  A
C539        C540   1.400       .  A
C539        H552   1.085       .  S
C540        C542   1.444       .  S
C541        N545   1.158       .  T
C542        N546   1.157       .  T
C543        N548   1.157       .  T
C544        N547   1.157       .  T
C553        C554   1.410   1_556  A
C553        C558   1.400       .  A
C553        C567   1.444       .  S
C554        C559   1.486       .  S
C554        C555   1.402       .  A
C555        C556   1.402       .  A
C555        H574   1.085       .  S
C556        C557   1.417       .  A
C556        C568   1.445       .  S
C557        C558   1.406   1_554  A
C558        H573   1.085       .  S
C559        C560   1.401       .  A
C559        C564   1.410   1_554  A
C560        C561   1.399       .  A
C560        H575   1.085       .  S
C561        C562   1.417       .  A
C561        C565   1.444       .  S
C562        C563   1.408   1_554  A
C563        C564   1.403       .  A
C563        H576   1.085       .  S
C564        C566   1.444       .  S
C565        N569   1.157       .  T
C566        N570   1.157       .  T
C567        N572   1.157       .  T
C568        N571   1.157       .  T
C577        C578   1.411       .  A
C577        C582   1.403       .  A
C577        C591   1.444       .  S
C578        C583   1.485       .  S
C578        C579   1.401   1_556  A
C579        C580   1.401       .  A
C579        H598   1.085       .  S
C580        C581   1.416   1_554  A
C580        C592   1.444       .  S
C581        C582   1.405       .  A
C582        H597   1.085       .  S
C583        C584   1.403   1_556  A
C583        C588   1.409       .  A
C584        C585   1.402       .  A
C584        H599   1.085       .  S
C585        C586   1.414   1_554  A
C585        C589   1.444       .  S
C586        C587   1.407       .  A
C587        C588   1.401       .  A
C587        H600   1.085       .  S
C588        C590   1.444       .  S
C589        N593   1.157       .  T
C590        N594   1.157       .  T
C591        N596   1.157       .  T
C592        N595   1.157       .  T
C601        C602   1.412   1_545  A
C601        C606   1.400       .  A
C601        C615   1.444       .  S
C602        C607   1.491       .  S
C602        C603   1.403       .  A
C603        C604   1.400       .  A
C603        H622   1.085       .  S
C604        C605   1.419       .  A
C604        C616   1.444       .  S
C605        C606   1.406   1_565  A
C606        H621   1.085       .  S
C607        C608   1.404       .  A
C607        C612   1.412   1_565  A
C608        C609   1.401       .  A
C608        H623   1.085       .  S
C609        C610   1.418       .  A
C609        C613   1.445       .  S
C610        C611   1.406   1_565  A
C611        C612   1.399       .  A
C611        H624   1.085       .  S
C612        C614   1.444       .  S
C613        N617   1.158       .  T
C614        N618   1.157       .  T
C615        N620   1.157       .  T
C616        N619   1.157       .  T
C625        C626   1.409       .  A
C625        C630   1.399       .  A
C625        C639   1.444       .  S
C626        C631   1.482       .  S
C626        C627   1.402   1_545  A
C627        C628   1.400       .  A
C627        H646   1.085       .  S
C628        C629   1.417   1_565  A
C628        C640   1.444       .  S
C629        C630   1.408       .  A
C630        H645   1.085       .  S
C631        C632   1.399   1_545  A
C631        C636   1.409       .  A
C632        C633   1.399       .  A
C632        H647   1.085       .  S
C633        C634   1.416   1_565  A
C633        C637   1.444       .  S
C634        C635   1.408       .  A
C635        C636   1.403       .  A
C635        H648   1.085       .  S
C636        C638   1.445       .  S
C637        N641   1.157       .  T
C638        N642   1.157       .  T
C639        N644   1.157       .  T
C640        N643   1.157       .  T
C649        C650   1.410   1_545  A
C649        C654   1.402       .  A
C649        C663   1.445       .  S
C650        C655   1.484       .  S
C650        C651   1.401       .  A
C651        C652   1.398       .  A
C651        H670   1.085       .  S
C652        C653   1.414       .  A
C652        C664   1.443       .  S
C653        C654   1.407   1_565  A
C654        H669   1.085       .  S
C655        C656   1.401       .  A
C655        C660   1.409   1_565  A
C656        C657   1.401       .  A
C656        H671   1.085       .  S
C657        C658   1.420       .  A
C657        C661   1.444       .  S
C658        C659   1.406   1_565  A
C659        C660   1.397       .  A
C659        H672   1.079       .  S
C660        C662   1.445       .  S
C661        N665   1.157       .  T
C662        N666   1.157       .  T
C663        N668   1.157       .  T
C664        N667   1.157       .  T
C673        C674   1.410   1_565  A
C673        C678   1.401       .  A
C673        C687   1.443       .  S
C674        C679   1.485       .  S
C674        C675   1.401       .  A
C675        C676   1.400       .  A
C675        H694   1.085       .  S
C676        C677   1.418       .  A
C676        C688   1.445       .  S
C677        C678   1.405   1_545  A
C678        H693   1.085       .  S
C679        C680   1.402       .  A
C679        C684   1.409   1_545  A
C680        C681   1.403       .  A
C680        H695   1.085       .  S
C681        C682   1.417       .  A
C681        C685   1.444       .  S
C682        C683   1.405   1_545  A
C683        C684   1.400       .  A
C683        H696   1.085       .  S
C684        C686   1.443       .  S
C685        N689   1.157       .  T
C686        N690   1.157       .  T
C687        N692   1.157       .  T
C688        N691   1.157       .  T
C697        C698   1.409   1_455  A
C697        C702   1.395       .  A
C697        C711   1.443       .  S
C698        C703   1.480       .  S
C698        C699   1.402       .  A
C699        C700   1.400       .  A
C699        H718   1.085       .  S
C700        C701   1.416       .  A
C700        C712   1.446       .  S
C701        C702   1.403   1_655  A
C702        H717   1.085       .  S
C703        C704   1.399       .  A
C703        C708   1.409   1_655  A
C704        C705   1.397       .  A
C704        H719   1.085       .  S
C705        C706   1.417       .  A
C705        C709   1.443       .  S
C706        C707   1.408   1_655  A
C707        C708   1.401       .  A
C707        H720   1.085       .  S
C708        C710   1.445       .  S
C709        N713   1.157       .  T
C710        N714   1.157       .  T
C711        N716   1.157       .  T
C712        N715   1.158       .  T
C721        C722   1.411   1_455  A
C721        C726   1.400       .  A
C721        C735   1.444       .  S
C722        C727   1.488       .  S
C722        C723   1.402       .  A
C723        C724   1.398       .  A
C723        H742   1.085       .  S
C724        C725   1.419       .  A
C724        C736   1.445       .  S
C725        C726   1.407   1_655  A
C726        H741   1.085       .  S
C727        C728   1.404       .  A
C727        C732   1.412   1_655  A
C728        C729   1.401       .  A
C728        H743   1.085       .  S
C729        C730   1.417       .  A
C729        C733   1.445       .  S
C730        C731   1.404   1_655  A
C731        C732   1.397       .  A
C731        H744   1.085       .  S
C732        C734   1.445       .  S
C733        N737   1.158       .  T
C734        N738   1.157       .  T
C735        N740   1.157       .  T
C736        N739   1.157       .  T
C745        C746   1.411   1_655  A
C745        C750   1.401       .  A
C745        C759   1.444       .  S
C746        C751   1.488       .  S
C746        C747   1.404       .  A
C747        C748   1.402       .  A
C747        H766   1.085       .  S
C748        C749   1.415       .  A
C748        C760   1.445       .  S
C749        C750   1.403   1_455  A
C750        H765   1.085       .  S
C751        C752   1.401       .  A
C751        C756   1.408   1_455  A
C752        C753   1.401       .  A
C752        H767   1.085       .  S
C753        C754   1.421       .  A
C753        C757   1.445       .  S
C754        C755   1.410   1_455  A
C755        C756   1.401       .  A
C755        H768   1.084       .  S
C756        C758   1.444       .  S
C757        N761   1.157       .  T
C758        N762   1.157       .  T
C759        N764   1.157       .  T
C760        N763   1.157       .  T
C769        C770   1.409       .  A
C769        C774   1.404       .  A
C769        C783   1.444       .  S
C770        C775   1.482       .  S
C770        C771   1.398   1_655  A
C771        C772   1.395       .  A
C771        H790   1.085       .  S
C772        C773   1.412   1_455  A
C772        C784   1.436       .  S
C773        C774   1.410       .  A
C774        H789   1.085       .  S
C775        C776   1.403       .  A
C775        C780   1.412   1_655  A
C776        C777   1.401       .  A
C776        H791   1.085       .  S
C777        C778   1.410       .  A
C777        C781   1.444       .  S
C778        C779   1.400   1_655  A
C779        C780   1.397       .  A
C779        H792   1.085       .  S
C780        C782   1.444       .  S
C781        N785   1.157       .  T
C782        N786   1.157       .  T
C783        N788   1.157       .  T
C784        N787   1.154       .  T
