geometry optimzed in LAMMPS
_audit_creation_date              2020-11-30 
_audit_creation_method            'lammps2cif' 
_symmetry_space_group_name_H-M    'P1' 
_symmetry_Int_Tables_number       1 
_symmetry_cell_setting            triclinic 
loop_ 
_symmetry_equiv_pos_as_xyz 
  x,y,z 
_cell_length_a                    25.99176023 
_cell_length_b                    26.021213320969878 
_cell_length_c                    26.030010054184135 
_cell_angle_alpha                 89.9559765466161 
_cell_angle_beta                  89.76251577948211 
_cell_angle_gamma                 89.89052242640207 
loop_ 
_atom_site_label 
_atom_site_type_symbol 
_atom_site_fract_x 
_atom_site_fract_y 
_atom_site_fract_z 
_atom_site_charge 
N1          N  0.99543744  0.50474318  0.42003631    -0.36000
N2          N  0.99190419  0.58134242  0.50150632    -0.56600
N3          N  0.00804100  0.50053212  0.57650328    -0.36000
N4          N  0.00809007  0.42419166  0.49454624    -0.56600
C5          C  0.97664015  0.54598360  0.39466773     0.27500
C6          C  0.98557790  0.46282249  0.39097143     0.27500
C7          C  0.99644008  0.54043086  0.60788635     0.27500
C8          C  0.00197483  0.45676067  0.60401774     0.27500
C9          C  0.99502567  0.61273306  0.46019614     0.36200
C10         C  0.00177137  0.61068662  0.54316059     0.36200
C11         C  0.01809441  0.39702986  0.45145056     0.36200
C12         C  0.02205149  0.39417977  0.53440961     0.36200
C13         C  0.95443582  0.53017558  0.34899856    -0.21300
C14         C  0.95994048  0.47758123  0.34672873    -0.21300
C15         C  0.98392552  0.52184377  0.65628373    -0.21300
C16         C  0.98698153  0.46905476  0.65372368    -0.21300
C17         C  0.00650563  0.66234113  0.47570944    -0.22400
C18         C  0.01025771  0.66115025  0.52832154    -0.22400
C19         C  0.03906776  0.34964334  0.46397732    -0.22400
C20         C  0.04112847  0.34766293  0.51669084    -0.22400
C21         C  0.98410995  0.59778394  0.40913222    -0.17700
C22         C  0.00275054  0.41232967  0.40172281    -0.17700
C23         C  0.01291207  0.40632367  0.58644690    -0.17700
C24         C  0.99969677  0.59315165  0.59458436    -0.17700
H25         H  0.93712835  0.55423203  0.31983249     0.15200
H26         H  0.94754558  0.45314493  0.31552760     0.15200
H27         H  0.97382998  0.54393040  0.69006705     0.15200
H28         H  0.97984439  0.44277174  0.68519483     0.15200
H29         H  0.01081389  0.69608851  0.45176584     0.13500
H30         H  0.01800271  0.69380580  0.55279862     0.13500
H31         H  0.05000052  0.31904558  0.43796805     0.13500
H32         H  0.05420922  0.31537021  0.53942319     0.13500
H33         H  0.01980453  0.50609287  0.45158751     0.26700
H34         H  0.02453186  0.50333840  0.54020388     0.26700
O35         O  0.00101346  0.15162843  0.07893865    -0.85900
O36         O  0.99487815  0.86008927  0.08822975    -0.86100
O37         O  0.91693671  0.01154170  0.14604266    -0.87800
O38         O  0.08409539  0.99857706  0.14507592    -0.86500
O39         O  0.14730779  0.00138155  0.08405242    -0.86100
O40         O  0.85472709  0.01023240  0.08390221    -0.87500
O41         O  0.99720248  0.92395451  0.14894284    -0.86000
O42         O  0.00391998  0.09093433  0.14325358    -0.85500
Zr43       Zr  0.00060232  0.00631149  0.10354191     2.84300
O44         O  0.05148337  0.95208847  0.05311537    -1.07500
O45         O  0.95065696  0.05903479  0.05030990    -1.08200
C46         C  0.00248098  0.13766344  0.12655577     1.07200
C47         C  0.99483817  0.87624009  0.13527841     1.07100
C48         C  0.86951196  0.01146535  0.13128484     1.10100
C49         C  0.13185921  0.99837068  0.13126904     1.07900
H50         H  0.92456353  0.93475419  0.07529097     0.33400
O51         O  0.94695575  0.95494904  0.05331096    -1.28500
H52         H  0.07601896  0.07772240  0.07208820     0.33100
O53         O  0.05401507  0.05640583  0.05084855    -1.30200
O54         O  0.99514195  0.85570087  0.92028035    -0.85900
O55         O  0.00784242  0.14660398  0.91024220    -0.87400
O56         O  0.85264949  0.92574648  0.99911735    -0.86000
O57         O  0.14512607  0.91825133  0.00401784    -0.86000
O58         O  0.14854032  0.08482363  0.99759479    -0.85800
O59         O  0.85741987  0.09289715  0.00041864    -0.85600
O60         O  0.91772704  0.99694900  0.85472063    -0.85900
O61         O  0.08571690  0.00209858  0.85466540    -0.85400
O62         O  0.85550837  0.00686897  0.91615672    -0.86500
O63         O  0.14791802  0.00118386  0.91688701    -0.85600
O64         O  0.91260882  0.86127820  0.00371860    -0.86000
O65         O  0.92153231  0.15216553  0.99293136    -0.85700
O66         O  0.08782483  0.14849761  0.99903193    -0.85400
O67         O  0.08156676  0.85709100  0.00548305    -0.85800
O68         O  0.00186218  0.91591510  0.85669206    -0.86100
O69         O  0.00219537  0.08259307  0.85013263    -0.87400
Zr70       Zr  0.99806492  0.90026683  0.00300822     2.83100
Zr71       Zr  0.00378746  0.10769853  0.99623538     2.83500
Zr72       Zr  0.89730170  0.00780567  0.99993513     2.84100
Zr73       Zr  0.10472092  0.00208802  0.00029871     2.83400
Zr74       Zr  0.00159199  0.00092478  0.89631716     2.84200
O75         O  0.05480067  0.05333587  0.94608025    -1.08000
O76         O  0.94792454  0.95252948  0.94984193    -1.07500
C77         C  0.99801560  0.86894337  0.87243888     1.07200
C78         C  0.00557328  0.13036486  0.86323859     1.09800
C79         C  0.86572862  0.87791115  0.00142434     1.07300
C80         C  0.12921368  0.87137064  0.00567325     1.07700
C81         C  0.13490066  0.13258631  0.99847956     1.07300
C82         C  0.87364808  0.13967607  0.99650424     1.06800
C83         C  0.87020916  0.00078137  0.86905917     1.07200
C84         C  0.13307342  0.00192686  0.86956070     1.06800
H85         H  0.92953447  0.07764824  0.92343147     0.33400
O86         O  0.95038801  0.05631060  0.94573678    -1.29100
H87         H  0.07359711  0.92669347  0.92887010     0.33500
O88         O  0.05226065  0.94919435  0.94970926    -1.30500
N89         N  0.49931307  0.97260834  0.42153372    -0.36000
N90         N  0.58057420  0.97443726  0.49884949    -0.56600
N91         N  0.50343325  0.97079233  0.57994644    -0.36000
N92         N  0.42226559  0.97410462  0.50267473    -0.56600
C93         C  0.54038381  0.98397462  0.39147223     0.27500
C94         C  0.45645046  0.98160659  0.39345732     0.27500
C95         C  0.54607367  0.97938632  0.60831932     0.27500
C96         C  0.46226869  0.98162957  0.61008417     0.27500
C97         C  0.61022869  0.97117420  0.45620570     0.36200
C98         C  0.61242668  0.96865381  0.53939062     0.36200
C99         C  0.39056683  0.96788548  0.46213827     0.36200
C100        C  0.39289303  0.96860952  0.54524484     0.36200
C101        C  0.52338727  0.99921105  0.34334750    -0.21300
C102        C  0.47054882  0.99740782  0.34449767    -0.21300
C103        C  0.53170774  0.99403499  0.65758594    -0.21300
C104        C  0.47898528  0.99611202  0.65848316    -0.21300
C105        C  0.66119848  0.96342298  0.46974405    -0.22400
C106        C  0.66261398  0.96201749  0.52241151    -0.22400
C107        C  0.34078140  0.95874620  0.47905011    -0.22400
C108        C  0.34230525  0.95894054  0.53168372    -0.22400
C109        C  0.59289733  0.97949100  0.40539746    -0.17700
C110        C  0.40495059  0.97455441  0.41016327    -0.17700
C111        C  0.40989340  0.97690992  0.59607888    -0.17700
C112        C  0.59767299  0.97369036  0.59150263    -0.17700
H113        H  0.54662730  0.01038270  0.31061186     0.15200
H114        H  0.44544781  0.00693392  0.31281196     0.15200
H115        H  0.55650077  0.00286638  0.68965907     0.15200
H116        H  0.45566299  0.00679527  0.69132969     0.15200
H117        H  0.69413881  0.96031404  0.44434862     0.13500
H118        H  0.69687448  0.95773593  0.54552407     0.13500
H119        H  0.30668015  0.95347695  0.45594498     0.13500
H120        H  0.30963931  0.95376649  0.55707908     0.13500
H121        H  0.50055380  0.95513886  0.45730522     0.26700
H122        H  0.50243712  0.95407306  0.54383594     0.26700
N123        N  0.49551317  0.58407015  0.00446078    -0.36000
N124        N  0.57921775  0.50962533  0.99848052    -0.56600
N125        N  0.50377926  0.42660098  0.99497573    -0.36000
N126        N  0.41998970  0.50157496  0.99618605    -0.56600
C127        C  0.53567001  0.61614766  0.99633936     0.27500
C128        C  0.45201299  0.61157048  0.99668845     0.27500
C129        C  0.54738126  0.39826522  0.99275295     0.27500
C130        C  0.46350099  0.39411961  0.99055929     0.27500
C131        C  0.60780712  0.55267638  0.00280872     0.36200
C132        C  0.61220992  0.46949078  0.00033563     0.36200
C133        C  0.38741564  0.54112077  0.00482126     0.36200
C134        C  0.39145939  0.45831672  0.99833837     0.36200
C135        C  0.51733936  0.66482019  0.98447622    -0.21300
C136        C  0.46465321  0.66184804  0.98436751    -0.21300
C137        C  0.53462817  0.34685198  0.98688046    -0.21300
C138        C  0.48183742  0.34423376  0.98555044    -0.21300
C139        C  0.65946564  0.53990312  0.00643059    -0.22400
C140        C  0.66225290  0.48726573  0.00491007    -0.22400
C141        C  0.33778131  0.52302886  0.01185933    -0.22400
C142        C  0.34017821  0.47071527  0.00689792    -0.22400
C143        C  0.58845807  0.60349073  0.00083081    -0.17700
C144        C  0.40103374  0.59357829  0.00297719    -0.17700
C145        C  0.41064831  0.40753868  0.99371238    -0.17700
C146        C  0.59841280  0.41693998  0.99719438    -0.17700
H147        H  0.53951588  0.69909687  0.97659402     0.15200
H148        H  0.43858407  0.69332477  0.97640354     0.15200
H149        H  0.56060118  0.31437813  0.98435963     0.15200
H150        H  0.45958778  0.30930932  0.98208056     0.15200
H151        H  0.69187363  0.56577973  0.00934102     0.13500
H152        H  0.69723071  0.46470647  0.00671862     0.13500
H153        H  0.30323248  0.54520978  0.01904256     0.13500
H154        H  0.30779737  0.44481190  0.01003822     0.13500
H155        H  0.49745335  0.54756562  0.02027888     0.26700
H156        H  0.50159575  0.46544889  0.00196964     0.26700
C157        C  0.79089947  0.75343849  0.97969379    -0.04900
C158        C  0.74304977  0.76495991  0.00291445     0.09200
C159        C  0.73544382  0.81366154  0.02561712    -0.02300
C160        C  0.77603182  0.84955909  0.02720359    -0.00600
C161        C  0.82335224  0.83906286  0.00178185    -0.04200
C162        C  0.82978286  0.79103609  0.97686115     0.02900
C163        C  0.70078958  0.72570915  0.00284755     0.09700
C164        C  0.68557739  0.82718026  0.04702978     0.35600
C165        C  0.87513252  0.78067201  0.94587925     0.39000
C166        C  0.68380876  0.70309822  0.04936928    -0.04500
C167        C  0.64548892  0.66482708  0.04870870     0.02600
C168        C  0.62633823  0.64657424  0.00151251    -0.04100
C169        C  0.64293112  0.66921488  0.95510146    -0.00400
C170        C  0.67867778  0.70983772  0.95588147    -0.02900
C171        C  0.70605384  0.71877852  0.09790909     0.36300
C172        C  0.62271223  0.65084678  0.90662366     0.39900
C173        C  0.62512660  0.64455962  0.09656024     0.39100
C174        C  0.69226689  0.73574768  0.90837114     0.36000
C175        C  0.80031551  0.70256462  0.95872559     0.36700
C176        C  0.76907518  0.89645998  0.05663233     0.39900
N177        N  0.60833821  0.62876773  0.13466060    -0.38100
N178        N  0.72353591  0.73158500  0.13665440    -0.39700
N179        N  0.60632589  0.63606428  0.86810983    -0.37500
N180        N  0.70296997  0.75648293  0.87047021    -0.39900
N181        N  0.64591676  0.83816500  0.06419961    -0.39600
N182        N  0.76319246  0.93363053  0.08034493    -0.37300
N183        N  0.91073818  0.77202852  0.92049248    -0.38300
N184        N  0.80790040  0.66203515  0.94202080    -0.40000
C185        C  0.74527554  0.21246059  0.98667356    -0.04900
C186        C  0.75995552  0.26268689  0.00008915     0.09200
C187        C  0.81141867  0.27303032  0.01276209    -0.02300
C188        C  0.84845416  0.23334006  0.01182489    -0.00600
C189        C  0.83451469  0.18249482  0.99667966    -0.04200
C190        C  0.78243086  0.17308733  0.98270226     0.02900
C191        C  0.72083004  0.30483828  0.99971345     0.09700
C192        C  0.82605507  0.32468575  0.02779406     0.35600
C193        C  0.76652805  0.12386836  0.96195154     0.39000
C194        C  0.69904762  0.32247026  0.04622268    -0.04500
C195        C  0.65862478  0.35860986  0.04537680     0.02600
C196        C  0.64090047  0.37831913  0.99810662    -0.04100
C197        C  0.66376409  0.36192063  0.95169838    -0.00400
C198        C  0.70369922  0.32527695  0.95247713    -0.02900
C199        C  0.71860398  0.30364423  0.09484747     0.36300
C200        C  0.64561055  0.38246764  0.90322052     0.39900
C201        C  0.63460881  0.37499105  0.09300924     0.39100
C202        C  0.72752598  0.30879809  0.90474822     0.36000
C203        C  0.69123862  0.20121050  0.97830227     0.36700
C204        C  0.90064516  0.24592047  0.02702693     0.39900
N205        N  0.61521243  0.38786339  0.13098187    -0.38100
N206        N  0.73492285  0.28906882  0.13351896    -0.39700
N207        N  0.63085377  0.39896596  0.86469029    -0.37500
N208        N  0.74664553  0.29573288  0.86669722    -0.39900
N209        N  0.83769796  0.36571584  0.04024992    -0.39600
N210        N  0.94217452  0.25639514  0.03897771    -0.37300
N211        N  0.75328333  0.08497534  0.94503993    -0.38300
N212        N  0.64798170  0.19262221  0.97248146    -0.40000
C213        C  0.20103687  0.74958185  0.04323538    -0.04900
C214        C  0.24494872  0.75284993  0.01143756     0.09200
C215        C  0.25173056  0.79565549  0.97888686    -0.02300
C216        C  0.21327289  0.83361235  0.97579347    -0.00600
C217        C  0.16920343  0.83071553  0.00790442    -0.04200
C218        C  0.16402052  0.78912439  0.04262159     0.02900
C219        C  0.28340560  0.71031098  0.01057313     0.09700
C220        C  0.29828357  0.80021312  0.94815470     0.35600
C221        C  0.12165902  0.78754107  0.07906077     0.39000
C222        C  0.28707089  0.67822575  0.96699043    -0.04500
C223        C  0.32474902  0.63945048  0.96482860     0.02600
C224        C  0.35910199  0.63270818  0.00622093    -0.04100
C225        C  0.35465095  0.66410105  0.05030939    -0.00400
C226        C  0.31685469  0.70283535  0.05248197    -0.02900
C227        C  0.25241209  0.68572860  0.92401346     0.36300
C228        C  0.38917353  0.65662917  0.09335065     0.39900
C229        C  0.32799007  0.60639453  0.92006124     0.39100
C230        C  0.31255098  0.73531465  0.09761009     0.36000
C231        C  0.19380067  0.70523958  0.07633349     0.36700
C232        C  0.21836250  0.87413406  0.93774077     0.39900
N233        N  0.32990925  0.57959041  0.88464584    -0.38100
N234        N  0.22505662  0.69231352  0.88965251    -0.39700
N235        N  0.41683989  0.65083442  0.12759989    -0.37500
N236        N  0.30854734  0.76098384  0.13370476    -0.39900
N237        N  0.33545973  0.80350452  0.92375555    -0.39600
N238        N  0.22281704  0.90595108  0.90696032    -0.37300
N239        N  0.08827017  0.78595044  0.10854975    -0.38300
N240        N  0.18823103  0.66991308  0.10280117    -0.40000
C241        C  0.26373508  0.19924105  0.02341426    -0.04900
C242        C  0.25505516  0.24800486  0.00156315     0.09200
C243        C  0.20706232  0.25926696  0.97911328    -0.02300
C244        C  0.16876920  0.22114132  0.97607463    -0.00600
C245        C  0.17649865  0.17233726  0.99938949    -0.04200
C246        C  0.22428287  0.16212632  0.02385135     0.02900
C247        C  0.29710024  0.28711094  0.00017465     0.09700
C248        C  0.19713206  0.31042248  0.95904874     0.35600
C249        C  0.23329515  0.11395730  0.05051195     0.39000
C250        C  0.32063777  0.29988503  0.95282674    -0.04500
C251        C  0.35731559  0.33956115  0.95046551     0.02600
C252        C  0.37245340  0.36489123  0.99582734    -0.04100
C253        C  0.35075609  0.35051442  0.04349772    -0.00400
C254        C  0.31262331  0.31224271  0.04562617    -0.02900
C255        C  0.30735212  0.27172905  0.90665299     0.36300
C256        C  0.36698540  0.37625570  0.09013854     0.39900
C257        C  0.37905104  0.35479794  0.90136793     0.39100
C258        C  0.28927033  0.29899934  0.09456158     0.36000
C259        C  0.31367217  0.18712811  0.04514717     0.36700
C260        C  0.12266368  0.23197605  0.94661396     0.39900
N261        N  0.39627699  0.36697095  0.86214762    -0.38100
N262        N  0.29671529  0.24900242  0.87001362    -0.39700
N263        N  0.38001936  0.39735755  0.12696208    -0.37500
N264        N  0.27117501  0.28833632  0.13383355    -0.39900
N265        N  0.18926503  0.35126343  0.94325198    -0.39600
N266        N  0.08622279  0.24086230  0.92275871    -0.37300
N267        N  0.24102176  0.07569318  0.07183758    -0.38300
N268        N  0.35348315  0.17762732  0.06253020    -0.40000
C269        C  0.69047589  0.02829713  0.69025018    -0.04900
C270        C  0.71344079  0.98313405  0.70963502     0.09200
C271        C  0.69934815  0.93483073  0.68949799    -0.02300
C272        C  0.66176187  0.93169600  0.65070178    -0.00600
C273        C  0.63906767  0.97692256  0.63107158    -0.04200
C274        C  0.65428843  0.02529468  0.65026059     0.02900
C275        C  0.75350354  0.98688286  0.75050491     0.09700
C276        C  0.72376270  0.88847819  0.70857957     0.35600
C277        C  0.63226797  0.07191083  0.62900333     0.39000
C278        C  0.74068067  0.97732291  0.80217765    -0.04500
C279        C  0.77875199  0.98007301  0.84059206     0.02600
C280        C  0.82940539  0.99724626  0.82829655    -0.04100
C281        C  0.84080339  0.00982716  0.77619144    -0.00400
C282        C  0.80387091  0.00182091  0.73747730    -0.02900
C283        C  0.68786396  0.96517197  0.81579494     0.36300
C284        C  0.88956125  0.03295423  0.76173930     0.39900
C285        C  0.76523669  0.96347247  0.89215197     0.39100
C286        C  0.81763670  0.00849789  0.68377100     0.36000
C287        C  0.70355945  0.07776658  0.71222729     0.36700
C288        C  0.64646137  0.88203904  0.63072957     0.39900
N289        N  0.75393193  0.94998439  0.93304347    -0.38100
N290        N  0.64563054  0.95601985  0.82661179    -0.39700
N291        N  0.92827625  0.05136050  0.74963815    -0.37500
N292        N  0.82834318  0.01310688  0.64081729    -0.39900
N293        N  0.74329612  0.85149182  0.72375937    -0.39600
N294        N  0.63426331  0.84249657  0.61456819    -0.37300
N295        N  0.61462513  0.10899801  0.61190144    -0.38300
N296        N  0.71394245  0.11707686  0.73013291    -0.40000
C297        C  0.29975715  0.03407717  0.67488906    -0.04900
C298        C  0.29390778  0.99666842  0.71373890     0.09200
C299        C  0.32757543  0.95415201  0.71551608    -0.02300
C300        C  0.36423543  0.94672148  0.67628693    -0.00600
C301        C  0.37000911  0.98386932  0.63709769    -0.04200
C302        C  0.33855486  0.02829482  0.63733654     0.02900
C303        C  0.25133563  0.00065545  0.75221313     0.09700
C304        C  0.32501854  0.91875209  0.75854256     0.35600
C305        C  0.34632614  0.06803357  0.59893223     0.39000
C306        C  0.20759428  0.96911116  0.74730186    -0.04500
C307        C  0.16892155  0.96969127  0.78538596     0.02600
C308        C  0.17360299  0.00210484  0.82885297    -0.04100
C309        C  0.21740671  0.03422940  0.83317607    -0.00400
C310        C  0.25618098  0.03319468  0.79510350    -0.02900
C311        C  0.20316752  0.93486608  0.70353352     0.36300
C312        C  0.22264500  0.06922312  0.87613716     0.39900
C313        C  0.12545491  0.93514577  0.78047802     0.39100
C314        C  0.30188607  0.06465040  0.80055508     0.36000
C315        C  0.26595684  0.07846874  0.67363011     0.36700
C316        C  0.39558621  0.90056489  0.67591978     0.39900
N317        N  0.09093881  0.90749355  0.77615007    -0.38100
N318        N  0.19986348  0.90729303  0.66884485    -0.39700
N319        N  0.22768941  0.09740188  0.91008585    -0.37500
N320        N  0.33846596  0.08955841  0.80475972    -0.39900
N321        N  0.32311677  0.89119589  0.79341260    -0.39600
N322        N  0.42048634  0.86365276  0.67564618    -0.37300
N323        N  0.35276966  0.09950293  0.56813591    -0.38300
N324        N  0.23918861  0.11404444  0.67253573    -0.40000
C325        C  0.30680404  0.02790291  0.31537975    -0.04900
C326        C  0.28633201  0.98230448  0.29419755     0.09200
C327        C  0.30303580  0.93415669  0.31307646    -0.02300
C328        C  0.34195954  0.93160373  0.35062491    -0.00600
C329        C  0.36308538  0.97716455  0.37092913    -0.04200
C330        C  0.34409009  0.02527258  0.35450348     0.02900
C331        C  0.24654684  0.98514919  0.25259372     0.09700
C332        C  0.27945794  0.88730088  0.29443489     0.35600
C333        C  0.36242658  0.07198932  0.37860391     0.39000
C334        C  0.25862237  0.96973168  0.20202448    -0.04500
C335        C  0.22104984  0.97223337  0.16296387     0.02600
C336        C  0.17170351  0.99398734  0.17310114    -0.04100
C337        C  0.16019480  0.00965873  0.22439888    -0.00400
C338        C  0.19669177  0.00324351  0.26388806    -0.02900
C339        C  0.30985539  0.95053479  0.19037939     0.36300
C340        C  0.11081228  0.03229246  0.23773218     0.39900
C341        C  0.23303093  0.94953241  0.11340177     0.39100
C342        C  0.18248505  0.01396967  0.31683148     0.36000
C343        C  0.28953498  0.07758755  0.29682353     0.36700
C344        C  0.35971171  0.88212920  0.36919641     0.39900
N345        N  0.24301638  0.93085089  0.07425863    -0.38100
N346        N  0.35067112  0.93499638  0.18143630    -0.39700
N347        N  0.07146683  0.05009647  0.24883853    -0.37500
N348        N  0.17109462  0.02207106  0.35908501    -0.39900
N349        N  0.26048617  0.85002618  0.27948723    -0.39600
N350        N  0.37374322  0.84271284  0.38432197    -0.37300
N351        N  0.37676055  0.10914442  0.39826904    -0.38300
N352        N  0.27552048  0.11718290  0.28214044    -0.40000
C353        C  0.74267076  0.03624253  0.20266758    -0.04900
C354        C  0.74956616  0.00661559  0.24746267     0.09200
C355        C  0.79628287  0.98029479  0.25517958    -0.02300
C356        C  0.83502545  0.98126222  0.21716250    -0.00600
C357        C  0.82877975  0.01138954  0.17210699    -0.04200
C358        C  0.78259755  0.03989751  0.16584450     0.02900
C359        C  0.70715533  0.00119317  0.28613662     0.09700
C360        C  0.80399836  0.95139187  0.30228798     0.35600
C361        C  0.77614279  0.07400988  0.12226083     0.39000
C362        C  0.67872325  0.95505260  0.28861679    -0.04500
C363        C  0.64238574  0.94744358  0.32823015     0.02600
C364        C  0.63255913  0.98686443  0.36420199    -0.04100
C365        C  0.66018925  0.03349632  0.36101349    -0.00400
C366        C  0.69795039  0.04031927  0.32255984    -0.02900
C367        C  0.68746157  0.91523041  0.25055665     0.36300
C368        C  0.65019140  0.07410343  0.39789737     0.39900
C369        C  0.61633791  0.89844665  0.33311200     0.39100
C370        C  0.72835240  0.08697452  0.32124118     0.36000
C371        C  0.69388903  0.06192817  0.19395520     0.36700
C372        C  0.87979039  0.94862586  0.22379357     0.39900
N373        N  0.59593256  0.85917054  0.33731307    -0.38100
N374        N  0.69464510  0.88371105  0.21999765    -0.39700
N375        N  0.64220769  0.10626441  0.42757796    -0.37500
N376        N  0.75277389  0.12410661  0.32029112    -0.39900
N377        N  0.80983767  0.92852550  0.33997132    -0.39600
N378        N  0.91490413  0.92198315  0.22994978    -0.37300
N379        N  0.77052887  0.10159572  0.08785450    -0.38300
N380        N  0.65482317  0.08207739  0.18686068    -0.40000
C381        C  0.96836227  0.29187348  0.66666967    -0.04900
C382        C  0.01025858  0.28546487  0.70045945     0.09200
C383        C  0.05416348  0.31695594  0.69496780    -0.02300
C384        C  0.05561753  0.35543035  0.65678402    -0.00600
C385        C  0.01279926  0.36336672  0.62462123    -0.04200
C386        C  0.96961063  0.33072891  0.62886063     0.02900
C387        C  0.00833889  0.24523109  0.74169814     0.09700
C388        C  0.09782614  0.30968160  0.72869786     0.35600
C389        C  0.92671168  0.33686430  0.59389834     0.39000
C390        C  0.03456694  0.19824288  0.73517239    -0.04500
C391        C  0.03346615  0.16052703  0.77429759     0.02600
C392        C  0.00631961  0.16973613  0.82096090    -0.04100
C393        C  0.97914562  0.21681287  0.82658153    -0.00400
C394        C  0.98019969  0.25416694  0.78719615    -0.02900
C395        C  0.06268711  0.18889227  0.68778272     0.36300
C396        C  0.94800797  0.22649452  0.87185236     0.39900
C397        C  0.06103228  0.11268872  0.76609321     0.39100
C398        C  0.95182485  0.30191479  0.79319758     0.36000
C399        C  0.92414202  0.25817836  0.67070330     0.36700
C400        C  0.10163459  0.38602092  0.64943418     0.39900
N401        N  0.08284816  0.07460059  0.75857404    -0.38100
N402        N  0.08509918  0.18197053  0.64989737    -0.39700
N403        N  0.92283915  0.23484385  0.90762300    -0.37500
N404        N  0.92895397  0.33985672  0.79773188    -0.39900
N405        N  0.13269875  0.30366834  0.75554918    -0.39600
N406        N  0.13843183  0.41018343  0.64297449    -0.37300
N407        N  0.89271827  0.34150984  0.56568751    -0.38300
N408        N  0.88891334  0.23122410  0.67397405    -0.40000
C409        C  0.01590898  0.73832652  0.80493932    -0.04900
C410        C  0.99980809  0.74985463  0.75461827     0.09200
C411        C  0.98277270  0.79981888  0.74285688    -0.02300
C412        C  0.97949097  0.83755597  0.78163727    -0.00600
C413        C  0.99740866  0.82716519  0.83224704    -0.04200
C414        C  0.01582288  0.77676250  0.84331712     0.02900
C415        C  0.99989512  0.70901513  0.71397525     0.09700
C416        C  0.96951430  0.81264453  0.69022188     0.35600
C417        C  0.03559880  0.76376010  0.89375027     0.39000
C418        C  0.95313971  0.68652549  0.69817983    -0.04500
C419        C  0.95297618  0.64904911  0.65901244     0.02600
C420        C  0.99976000  0.63238605  0.63670964    -0.04100
C421        C  0.04661542  0.65400105  0.65345264    -0.00400
C422        C  0.04658719  0.69291851  0.69118655    -0.02900
C423        C  0.90526116  0.70173141  0.72271021     0.36300
C424        C  0.09488138  0.63615488  0.63172259     0.39900
C425        C  0.90467042  0.62753360  0.64162547     0.39100
C426        C  0.09450568  0.71696075  0.70626506     0.36000
C427        C  0.03308071  0.68660707  0.81695151     0.36700
C428        C  0.95543300  0.88617788  0.76897960     0.39900
N429        N  0.86611072  0.61032736  0.62781244    -0.38100
N430        N  0.86721669  0.71392453  0.74252994    -0.39700
N431        N  0.13344558  0.62181364  0.61454369    -0.37500
N432        N  0.13258667  0.73634673  0.71844136    -0.39900
N433        N  0.95948778  0.82292427  0.64816680    -0.39600
N434        N  0.93581039  0.92451240  0.75795813    -0.37300
N435        N  0.05114955  0.75289206  0.93393265    -0.38300
N436        N  0.04689073  0.64530718  0.82608378    -0.40000
C437        C  0.02135835  0.79803196  0.25721110    -0.04900
C438        C  0.98419772  0.75880753  0.25326880     0.09200
C439        C  0.94900282  0.75962359  0.21220724    -0.02300
C440        C  0.95160397  0.79881146  0.17472456    -0.00600
C441        C  0.99063209  0.83666737  0.17683388    -0.04200
C442        C  0.02490985  0.83653054  0.21903468     0.02900
C443        C  0.98264100  0.71633942  0.29226215     0.09700
C444        C  0.90992645  0.72005157  0.20866546     0.35600
C445        C  0.06464153  0.87521139  0.22310607     0.39000
C446        C  0.94394509  0.71535154  0.33052809    -0.04500
C447        C  0.94289811  0.67541336  0.36726056     0.02600
C448        C  0.98242594  0.63806039  0.36797911    -0.04100
C449        C  0.02132907  0.63933201  0.32987292    -0.00400
C450        C  0.02065710  0.67750836  0.29143731    -0.02900
C451        C  0.90596870  0.75618463  0.33275371     0.36300
C452        C  0.06276514  0.60190756  0.33090688     0.39900
C453        C  0.90100915  0.67244894  0.40411207     0.39100
C454        C  0.05919617  0.67696246  0.25095753     0.36000
C455        C  0.05576600  0.79871288  0.30099918     0.36700
C456        C  0.91205301  0.80168917  0.13575779     0.39900
N457        N  0.86752523  0.66983810  0.43343659    -0.38100
N458        N  0.87591565  0.78901195  0.33455613    -0.39700
N459        N  0.09577996  0.57204180  0.33202572    -0.37500
N460        N  0.08982993  0.67648323  0.21856787    -0.39900
N461        N  0.87866133  0.68856447  0.20607335    -0.39600
N462        N  0.87974118  0.80389886  0.10542332    -0.37300
N463        N  0.09664259  0.90570844  0.22727074    -0.38300
N464        N  0.08289735  0.79889247  0.33614351    -0.40000
C465        C  0.96924692  0.29265497  0.32378305    -0.04900
C466        C  0.00222806  0.29792836  0.28089989     0.09200
C467        C  0.03460161  0.34123517  0.27698170    -0.02300
C468        C  0.03570191  0.37787961  0.31686074    -0.00600
C469        C  0.00216359  0.37308100  0.35954713    -0.04200
C470        C  0.96803555  0.33085358  0.36211461     0.02900
C471        C  0.00298395  0.25751273  0.24005464     0.09700
C472        C  0.06626575  0.34831150  0.23148557     0.35600
C473        C  0.93120323  0.32692259  0.40393867     0.39000
C474        C  0.96026627  0.25138222  0.20728159    -0.04500
C475        C  0.95882312  0.21000682  0.17250941     0.02600
C476        C  0.00273695  0.17887097  0.16542490    -0.04100
C477        C  0.04679529  0.18705574  0.19577121    -0.00400
C478        C  0.04571740  0.22420635  0.23509610    -0.02900
C479        C  0.91804390  0.28786303  0.20911092     0.36300
C480        C  0.09378041  0.15869552  0.18523740     0.39900
C481        C  0.91110675  0.19727326  0.14685138     0.39100
C482        C  0.08781859  0.22714359  0.27135464     0.36000
C483        C  0.93693331  0.24747235  0.32862838     0.36700
C484        C  0.07206705  0.41998535  0.31429512     0.39900
N485        N  0.87260873  0.18628195  0.12761997    -0.38100
N486        N  0.88469351  0.31737520  0.21020150    -0.39700
N487        N  0.13157866  0.13689834  0.17610051    -0.37500
N488        N  0.12106039  0.22900387  0.30073082    -0.39900
N489        N  0.09123240  0.35390145  0.19499536    -0.38400
N490        N  0.10137514  0.45332547  0.31199819    -0.37300
N491        N  0.90173680  0.32370906  0.43722619    -0.38300
N492        N  0.91132139  0.21129938  0.33216268    -0.40000
loop_ 
_geom_bond_atom_site_label_1 
_geom_bond_atom_site_label_2 
_geom_bond_distance 
_geom_bond_site_symmetry_2 
_ccdc_geom_bond_type 
N1            C6   1.353       .  A
N1            C5   1.351       .  A
N1           H33   1.040   1_655  S
N2            C9   1.352       .  A
N2           C10   1.352   1_655  A
N3            C8   1.354       .  A
N3            C7   1.354   1_455  A
N3           H34   1.039       .  S
N4           C11   1.350       .  A
N4           C12   1.349       .  A
C5           C13   1.387       .  A
C5           C21   1.414       .  A
C6           C22   1.415   1_655  A
C6           C14   1.387       .  A
C7           C15   1.387       .  A
C7           C24   1.417       .  A
C8           C23   1.418       .  A
C8           C16   1.387   1_455  A
C9           C21   1.415       .  A
C9           C17   1.386   1_655  A
C10          C24   1.415   1_455  A
C10          C18   1.386       .  A
C11          C19   1.386       .  A
C11          C22   1.413       .  A
C12          C20   1.386       .  A
C12          C23   1.410       .  A
C13          C14   1.377       .  A
C13          H25   1.082       .  S
C14          H26   1.082       .  S
C15          C16   1.377       .  A
C15          H27   1.082       .  S
C16          H28   1.082       .  S
C17          C18   1.374       .  A
C17          H29   1.082       .  S
C18          H30   1.082       .  S
C19          C20   1.374       .  A
C19          H31   1.082       .  S
C20          H32   1.082       .  S
C21         C448   1.499       .  S
C22         C469   1.500       .  S
C23         C385   1.495       .  S
C24         C420   1.499       .  S
O35         Zr71   2.439   1_554  S
O35          C46   1.292       .  A
O36         Zr70   2.453       .  S
O36          C47   1.295       .  A
O37         Zr43   2.439   1_655  S
O37          C48   1.293       .  A
O38         Zr43   2.436   1_565  S
O38          C49   1.291       .  A
O39         Zr73   2.449       .  S
O39          C49   1.294   1_545  A
O40         Zr72   2.447   1_554  S
O40          C48   1.294       .  A
O41         Zr43   2.448   1_665  S
O41          C47   1.293       .  A
O42         Zr43   2.435       .  S
O42          C46   1.292       .  A
Zr43         O44   2.333   1_545  S
Zr43         O45   2.344   1_455  S
Zr43         O53   2.344       .  S
Zr43         O51   2.338   1_445  S
O44         Zr70   2.339   1_455  S
O44         Zr73   2.342   1_565  S
O45         Zr71   2.341   1_654  S
O45         Zr72   2.333   1_554  S
C46         C476   1.475       .  S
C47         C441   1.497       .  S
C48         C357   1.497       .  S
C49         C336   1.510       .  S
H50          O51   0.970       .  S
O51         Zr70   2.342       .  S
O51         Zr72   2.344   1_564  S
H52          O53   0.972       .  S
O53         Zr71   2.348   1_554  S
O53         Zr73   2.334       .  S
O54         Zr70   2.448   1_556  S
O54          C77   1.294       .  A
O55         Zr71   2.458       .  S
O55          C78   1.296       .  A
O56         Zr72   2.432   1_565  S
O56          C79   1.291   1_556  A
O57         Zr73   2.421   1_565  S
O57          C80   1.289       .  A
O58         Zr73   2.438   1_556  S
O58          C81   1.292       .  A
O59         Zr72   2.443   1_554  S
O59          C82   1.293   1_554  A
O60         Zr74   2.440   1_665  S
O60          C83   1.292   1_565  A
O61         Zr74   2.437       .  S
O61          C84   1.292       .  A
O62         Zr72   2.441       .  S
O62          C83   1.292       .  A
O63         Zr73   2.440   1_556  S
O63          C84   1.293       .  A
O64         Zr70   2.444       .  S
O64          C79   1.294       .  A
O65         Zr71   2.431   1_655  S
O65          C82   1.290       .  A
O66         Zr71   2.432       .  S
O66          C81   1.291       .  A
O67         Zr70   2.443   1_455  S
O67          C80   1.294       .  A
O68         Zr74   2.441   1_565  S
O68          C77   1.293   1_455  A
O69         Zr74   2.441       .  S
O69          C78   1.293       .  A
Zr70         O76   2.338   1_554  S
Zr70         O88   2.349   1_654  S
Zr71         O75   2.333       .  S
Zr71         O86   2.338   1_455  S
Zr72         O76   2.341   1_545  S
Zr72         O86   2.340       .  S
Zr73         O75   2.337   1_554  S
Zr73         O88   2.348   1_544  S
Zr74         O75   2.340       .  S
Zr74         O76   2.337   1_445  S
Zr74         O88   2.342   1_545  S
Zr74         O86   2.342   1_455  S
C77         C413   1.509       .  S
C78         C392   1.503       .  S
C79         C161   1.496       .  S
C80         C217   1.483       .  S
C81         C245   1.498       .  S
C82         C189   1.507       .  S
C83         C280   1.506   1_545  S
C84         C308   1.491       .  S
H85          O86   0.970       .  S
H87          O88   0.970       .  S
N89          C94   1.355       .  A
N89          C93   1.354       .  A
N89         H121   1.036       .  S
N90          C97   1.351       .  A
N90          C98   1.352       .  A
N91          C96   1.353       .  A
N91          C95   1.353       .  A
N91         H122   1.037       .  S
N92          C99   1.351       .  A
N92         C100   1.351       .  A
C93         C101   1.387       .  A
C93         C109   1.418       .  A
C94         C110   1.418       .  A
C94         C102   1.387       .  A
C95         C103   1.388       .  A
C95         C112   1.417       .  A
C96         C111   1.416       .  A
C96         C104   1.387       .  A
C97         C109   1.415       .  A
C97         C105   1.387       .  A
C98         C112   1.414       .  A
C98         C106   1.386       .  A
C99         C107   1.386       .  A
C99         C110   1.413       .  A
C100        C108   1.386       .  A
C100        C111   1.414       .  A
C101        C102   1.374       .  A
C101        H113   1.082   1_565  S
C102        H114   1.082   1_565  S
C103        C104   1.371       .  A
C103        H115   1.082   1_565  S
C104        H116   1.082   1_565  S
C105        C106   1.372       .  A
C105        H117   1.082       .  S
C106        H118   1.082       .  S
C107        C108   1.371       .  A
C107        H119   1.082       .  S
C108        H120   1.082       .  S
C109        C364   1.497       .  S
C110        C329   1.497       .  S
C111        C301   1.496       .  S
C112        C273   1.495       .  S
N123        C128   1.353   1_554  A
N123        C127   1.354   1_554  A
N123        H155   1.036       .  S
N124        C131   1.351   1_556  A
N124        C132   1.351   1_556  A
N125        C130   1.352       .  A
N125        C129   1.352       .  A
N125        H156   1.029   1_556  S
N126        C133   1.350   1_556  A
N126        C134   1.350       .  A
C127        C135   1.387       .  A
C127        C143   1.416   1_556  A
C128        C144   1.415   1_556  A
C128        C136   1.387       .  A
C129        C137   1.388       .  A
C129        C146   1.419       .  A
C130        C145   1.419       .  A
C130        C138   1.388       .  A
C131        C143   1.415       .  A
C131        C139   1.386       .  A
C132        C146   1.417   1_554  A
C132        C140   1.387       .  A
C133        C141   1.386       .  A
C133        C144   1.412       .  A
C134        C142   1.388   1_556  A
C134        C145   1.416       .  A
C135        C136   1.372       .  A
C135        H147   1.082       .  S
C136        H148   1.082       .  S
C137        C138   1.375       .  A
C137        H149   1.082       .  S
C138        H150   1.082       .  S
C139        C140   1.372       .  A
C139        H151   1.082       .  S
C140        H152   1.082       .  S
C141        C142   1.369       .  A
C141        H153   1.082       .  S
C142        H154   1.082       .  S
C143        C168   1.494       .  S
C144        C224   1.492       .  S
C145        C252   1.491       .  S
C146        C196   1.492       .  S
C157        C158   1.412   1_556  A
C157        C162   1.410       .  A
C157        C175   1.452       .  S
C158        C159   1.412       .  A
C158        C163   1.501       .  S
C159        C160   1.411       .  A
C159        C164   1.452       .  S
C160        C161   1.420       .  A
C160        C176   1.452       .  S
C161        C162   1.418   1_554  A
C162        C165   1.450       .  S
C163        C166   1.415       .  A
C163        C170   1.415   1_554  A
C164        N181   1.157       .  T
C165        N183   1.157       .  T
C166        C167   1.410       .  A
C166        C171   1.451       .  S
C167        C168   1.410       .  A
C167        C173   1.451       .  S
C168        C169   1.410   1_554  A
C169        C170   1.409       .  A
C169        C172   1.451       .  S
C170        C174   1.451       .  S
C171        N178   1.157       .  T
C172        N179   1.157       .  T
C173        N177   1.157       .  T
C174        N180   1.157       .  T
C175        N184   1.157       .  T
C176        N182   1.157       .  T
C185        C186   1.407   1_556  A
C185        C190   1.410       .  A
C185        C203   1.453       .  S
C186        C187   1.406       .  A
C186        C191   1.494   1_554  S
C187        C188   1.411       .  A
C187        C192   1.452       .  S
C188        C189   1.429   1_554  A
C188        C204   1.453       .  S
C189        C190   1.425       .  A
C190        C193   1.452       .  S
C191        C194   1.411   1_556  A
C191        C198   1.413       .  A
C192        N209   1.157       .  T
C193        N211   1.157       .  T
C194        C195   1.409       .  A
C194        C199   1.450       .  S
C195        C196   1.411   1_554  A
C195        C201   1.450       .  S
C196        C197   1.410       .  A
C197        C198   1.408       .  A
C197        C200   1.450       .  S
C198        C202   1.451       .  S
C199        N206   1.157       .  T
C200        N207   1.157       .  T
C201        N205   1.157       .  T
C202        N208   1.157       .  T
C203        N212   1.157       .  T
C204        N210   1.158       .  T
C213        C214   1.410       .  A
C213        C218   1.407       .  A
C213        C231   1.452       .  S
C214        C215   1.410   1_554  A
C214        C219   1.490       .  S
C215        C216   1.406       .  A
C215        C220   1.453       .  S
C216        C217   1.417   1_556  A
C216        C232   1.452       .  S
C217        C218   1.416       .  A
C218        C221   1.451       .  S
C219        C222   1.412   1_554  A
C219        C226   1.411       .  A
C220        N237   1.157       .  T
C221        N239   1.157       .  T
C222        C223   1.406       .  A
C222        C227   1.452       .  S
C223        C224   1.413   1_556  A
C223        C229   1.451       .  S
C224        C225   1.413       .  A
C225        C226   1.407       .  A
C225        C228   1.451       .  S
C226        C230   1.451       .  S
C227        N234   1.157       .  T
C228        N235   1.157       .  T
C229        N233   1.157       .  T
C230        N236   1.157       .  T
C231        N240   1.157       .  T
C232        N238   1.157       .  T
C241        C242   1.408       .  A
C241        C246   1.410       .  A
C241        C259   1.452       .  S
C242        C243   1.410   1_554  A
C242        C247   1.495       .  S
C243        C244   1.409       .  A
C243        C248   1.453       .  S
C244        C245   1.421       .  A
C244        C260   1.452       .  S
C245        C246   1.423   1_556  A
C246        C249   1.451       .  S
C247        C250   1.413   1_554  A
C247        C254   1.413       .  A
C248        N265   1.157       .  T
C249        N267   1.157       .  T
C250        C251   1.408       .  A
C250        C255   1.451       .  S
C251        C252   1.410       .  A
C251        C257   1.450       .  S
C252        C253   1.411   1_556  A
C253        C254   1.407       .  A
C253        C256   1.452       .  S
C254        C258   1.450       .  S
C255        N262   1.157       .  T
C256        N263   1.157       .  T
C257        N261   1.157       .  T
C258        N264   1.157       .  T
C259        N268   1.157       .  T
C260        N266   1.158       .  T
C269        C270   1.411   1_545  A
C269        C274   1.408       .  A
C269        C287   1.451       .  S
C270        C271   1.412       .  A
C270        C275   1.495       .  S
C271        C272   1.410       .  A
C271        C276   1.450       .  S
C272        C273   1.412       .  A
C272        C288   1.450       .  S
C273        C274   1.412   1_565  A
C274        C277   1.451       .  S
C275        C278   1.406       .  A
C275        C282   1.406   1_565  A
C276        N293   1.157       .  T
C277        N295   1.157       .  T
C278        C279   1.412       .  A
C278        C283   1.452       .  S
C279        C280   1.426       .  A
C279        C285   1.452       .  S
C280        C281   1.425   1_565  A
C281        C282   1.411       .  A
C281        C284   1.452       .  S
C282        C286   1.452       .  S
C283        N290   1.157       .  T
C284        N291   1.158       .  T
C285        N289   1.157       .  T
C286        N292   1.157       .  T
C287        N296   1.157       .  T
C288        N294   1.157       .  T
C297        C298   1.411   1_545  A
C297        C302   1.409       .  A
C297        C315   1.450       .  S
C298        C299   1.410       .  A
C298        C303   1.493   1_565  S
C299        C300   1.407       .  A
C299        C304   1.451       .  S
C300        C301   1.413       .  A
C300        C316   1.450       .  S
C301        C302   1.415   1_565  A
C302        C305   1.452       .  S
C303        C306   1.410   1_545  A
C303        C310   1.408       .  A
C304        N321   1.157       .  T
C305        N323   1.157       .  T
C306        C307   1.409       .  A
C306        C311   1.452       .  S
C307        C308   1.418   1_565  A
C307        C313   1.451       .  S
C308        C309   1.419       .  A
C309        C310   1.411       .  A
C309        C312   1.450       .  S
C310        C314   1.451       .  S
C311        N318   1.157       .  T
C312        N319   1.157       .  T
C313        N317   1.157       .  T
C314        N320   1.157       .  T
C315        N324   1.157       .  T
C316        N322   1.157       .  T
C325        C326   1.415   1_545  A
C325        C330   1.410       .  A
C325        C343   1.451       .  S
C326        C327   1.414       .  A
C326        C331   1.502       .  S
C327        C328   1.411       .  A
C327        C332   1.450       .  S
C328        C329   1.411       .  A
C328        C344   1.450       .  S
C329        C330   1.411   1_565  A
C330        C333   1.451       .  S
C331        C334   1.410       .  A
C331        C338   1.408   1_565  A
C332        N349   1.157       .  T
C333        N351   1.157       .  T
C334        C335   1.414       .  A
C334        C339   1.452       .  S
C335        C336   1.425       .  A
C335        C341   1.452       .  S
C336        C337   1.427   1_565  A
C337        C338   1.411       .  A
C337        C340   1.452       .  S
C338        C342   1.452       .  S
C339        N346   1.157       .  T
C340        N347   1.158       .  T
C341        N345   1.158       .  T
C342        N348   1.157       .  T
C343        N352   1.157       .  T
C344        N350   1.157       .  T
C353        C354   1.409       .  A
C353        C358   1.413       .  A
C353        C371   1.451       .  S
C354        C355   1.408   1_545  A
C354        C359   1.497       .  S
C355        C356   1.409       .  A
C355        C360   1.452       .  S
C356        C357   1.420   1_565  A
C356        C372   1.450       .  S
C357        C358   1.420       .  A
C358        C361   1.450       .  S
C359        C362   1.412   1_545  A
C359        C366   1.411       .  A
C360        N377   1.157       .  T
C361        N379   1.157       .  T
C362        C363   1.410       .  A
C362        C367   1.451       .  S
C363        C364   1.412       .  A
C363        C369   1.450       .  S
C364        C365   1.413   1_565  A
C365        C366   1.410       .  A
C365        C368   1.451       .  S
C366        C370   1.450       .  S
C367        N374   1.157       .  T
C368        N375   1.157       .  T
C369        N373   1.157       .  T
C370        N376   1.157       .  T
C371        N380   1.157       .  T
C372        N378   1.157       .  T
C381        C382   1.412   1_655  A
C381        C386   1.411       .  A
C381        C399   1.450       .  S
C382        C383   1.413       .  A
C382        C387   1.500       .  S
C383        C384   1.411       .  A
C383        C388   1.450       .  S
C384        C385   1.410       .  A
C384        C400   1.450       .  S
C385        C386   1.413   1_455  A
C386        C389   1.451       .  S
C387        C390   1.409       .  A
C387        C394   1.409   1_455  A
C388        N405   1.157       .  T
C389        N407   1.157       .  T
C390        C391   1.414       .  A
C390        C395   1.452       .  S
C391        C392   1.422       .  A
C391        C397   1.451       .  S
C392        C393   1.420   1_455  A
C393        C394   1.412       .  A
C393        C396   1.449       .  S
C394        C398   1.452       .  S
C395        N402   1.157       .  T
C396        N403   1.156       .  T
C397        N401   1.157       .  T
C398        N404   1.157       .  T
C399        N408   1.157       .  T
C400        N406   1.157       .  T
C409        C410   1.409   1_455  A
C409        C414   1.414       .  A
C409        C427   1.451       .  S
C410        C411   1.407       .  A
C410        C415   1.500       .  S
C411        C412   1.411       .  A
C411        C416   1.453       .  S
C412        C413   1.425       .  A
C412        C428   1.449       .  S
C413        C414   1.425   1_655  A
C414        C417   1.451       .  S
C415        C418   1.413       .  A
C415        C422   1.412   1_655  A
C416        N433   1.157       .  T
C417        N435   1.158       .  T
C418        C419   1.411       .  A
C418        C423   1.451       .  S
C419        C420   1.413       .  A
C419        C425   1.450       .  S
C420        C421   1.413   1_655  A
C421        C422   1.411       .  A
C421        C424   1.450       .  S
C422        C426   1.451       .  S
C423        N430   1.157       .  T
C424        N431   1.157       .  T
C425        N429   1.157       .  T
C426        N432   1.157       .  T
C427        N436   1.157       .  T
C428        N434   1.156       .  T
C437        C438   1.411   1_455  A
C437        C442   1.413       .  A
C437        C455   1.452       .  S
C438        C439   1.410       .  A
C438        C443   1.500       .  S
C439        C440   1.412       .  A
C439        C444   1.451       .  S
C440        C441   1.417       .  A
C440        C456   1.449       .  S
C441        C442   1.417   1_655  A
C442        C445   1.448       .  S
C443        C446   1.413       .  A
C443        C450   1.412   1_655  A
C444        N461   1.157       .  T
C445        N463   1.156       .  T
C446        C447   1.412       .  A
C446        C451   1.450       .  S
C447        C448   1.413       .  A
C447        C453   1.450       .  S
C448        C449   1.414   1_655  A
C449        C450   1.409       .  A
C449        C452   1.451       .  S
C450        C454   1.451       .  S
C451        N458   1.157       .  T
C452        N459   1.157       .  T
C453        N457   1.157       .  T
C454        N460   1.157       .  T
C455        N464   1.157       .  T
C456        N462   1.156       .  T
C465        C466   1.411   1_655  A
C465        C470   1.409       .  A
C465        C483   1.451       .  S
C466        C467   1.411       .  A
C466        C471   1.496       .  S
C467        C468   1.410       .  A
C467        C472   1.451       .  S
C468        C469   1.415       .  A
C468        C484   1.450       .  S
C469        C470   1.415   1_455  A
C470        C473   1.450       .  S
C471        C474   1.412   1_455  A
C471        C478   1.413       .  A
C472        N489   1.157       .  T
C473        N491   1.157       .  T
C474        C475   1.408       .  A
C474        C479   1.450       .  S
C475        C476   1.410   1_655  A
C475        C481   1.450       .  S
C476        C477   1.410       .  A
C477        C478   1.409       .  A
C477        C480   1.451       .  S
C478        C482   1.450       .  S
C479        N486   1.157       .  T
C480        N487   1.157       .  T
C481        N485   1.157       .  T
C482        N488   1.157       .  T
C483        N492   1.157       .  T
C484        N490   1.157       .  T
