geometry optimzed in LAMMPS
_audit_creation_date              2020-11-30 
_audit_creation_method            'lammps2cif' 
_symmetry_space_group_name_H-M    'P1' 
_symmetry_Int_Tables_number       1 
_symmetry_cell_setting            triclinic 
loop_ 
_symmetry_equiv_pos_as_xyz 
  x,y,z 
_cell_length_a                    28.20721815 
_cell_length_b                    35.73844985521258 
_cell_length_c                    37.83199232667755 
_cell_angle_alpha                 87.84181959794253 
_cell_angle_beta                  89.09423741369609 
_cell_angle_gamma                 88.54691557876275 
loop_ 
_atom_site_label 
_atom_site_type_symbol 
_atom_site_fract_x 
_atom_site_fract_y 
_atom_site_fract_z 
_atom_site_charge 
O1          O  0.54775745  0.52651562  0.45445563    -0.74300
O2          O  0.44314240  0.45900980  0.45769649    -0.74300
O3          O  0.45154460  0.53532872  0.45413759    -0.74300
O4          O  0.53862840  0.45039834  0.45865649    -0.74400
O5          O  0.53464782  0.45254925  0.01287413    -0.74300
O6          O  0.45055015  0.53689792  0.00690002    -0.74300
O7          O  0.44046992  0.46195304  0.00970378    -0.74300
O8          O  0.54545030  0.52775740  0.00917445    -0.74300
Ni9        Ni  0.49528119  0.49283459  0.45407085     1.25400
Ni10       Ni  0.49265044  0.49492712  0.01161268     1.25400
C11         C  0.56432027  0.53960219  0.97987118     0.87900
C12         C  0.42576980  0.44738221  0.48754619     0.87800
C13         C  0.43802089  0.55173463  0.97709851     0.87900
C14         C  0.55000299  0.43589589  0.48900817     0.88000
O15         O  0.06197716  0.03869008  0.50963270    -0.74300
O16         O  0.95558929  0.97432349  0.50904016    -0.74300
O17         O  0.96799409  0.04938034  0.51299508    -0.74300
O18         O  0.04971082  0.96306072  0.50465816    -0.74400
O19         O  0.05681668  0.96168075  0.05871948    -0.74300
O20         O  0.96920046  0.04514588  0.06881479    -0.74300
O21         O  0.96085102  0.96859159  0.06436369    -0.74300
O22         O  0.06407318  0.03863363  0.06349577    -0.74300
Ni23       Ni  0.00888566  0.00650627  0.50709027     1.25400
Ni24       Ni  0.01306547  0.00310891  0.06601244     1.25400
C25         C  0.07654246  0.05463116  0.03393533     0.87900
C26         C  0.94177729  0.96094660  0.03492420     0.87800
C27         C  0.95388543  0.06246174  0.04080029     0.87900
C28         C  0.06647685  0.94981582  0.02775273     0.88000
O29         O  0.14237791  0.27251516  0.46206740    -0.80700
O30         O  0.27592306  0.22203276  0.08623664    -0.65400
O31         O  0.21233247  0.27944080  0.01258772    -1.12000
C32         C  0.33220902  0.23154213  0.43913045     1.06200
O33         O  0.34813420  0.23690088  0.06745823    -0.78600
O34         O  0.34270740  0.29004031  0.01529242    -0.66200
Ni35       Ni  0.14425992  0.27788616  0.01144628     1.34900
C36         C  0.32319386  0.30912705  0.49752753     0.84900
O37         O  0.20715997  0.27178016  0.08680867    -0.79200
O38         O  0.13620082  0.27500951  0.06198042    -0.89400
C39         C  0.31960194  0.22605475  0.09185588     0.84500
O40         O  0.14438741  0.22474327  0.00853007    -0.67600
O41         O  0.35754270  0.23596249  0.46621682    -0.86900
C42         C  0.16592079  0.20005877  0.02779217     0.85300
C43         C  0.16286562  0.27677606  0.08851943     1.06900
H44         H  0.27493227  0.20393666  0.01096933     0.38700
O45         O  0.28043916  0.23019493  0.01271892    -1.09600
O46         O  0.29098704  0.29863200  0.47678157    -0.66200
Ni47       Ni  0.25018060  0.25468986  0.47687338     1.26300
O48         O  0.20044646  0.20789625  0.04768405    -0.66500
O49         O  0.28731192  0.23262882  0.44029413    -0.78800
C50         C  0.17032150  0.28217028  0.43695214     0.84700
O51         O  0.21509350  0.28161983  0.44039307    -0.65900
Ni52       Ni  0.34727367  0.23672675  0.01626416     1.27400
Ni53       Ni  0.24298684  0.25025194  0.04988702     1.26100
H54         H  0.22102506  0.30605761  0.01462446     0.39200
O55         O  0.64924505  0.22194222  0.06388704    -0.80700
O56         O  0.78091240  0.28575169  0.44400554    -0.65400
O57         O  0.72022481  0.22241814  0.01120520    -1.12000
C58         C  0.82197089  0.28050228  0.09256343     1.06200
O59         O  0.84978498  0.26725979  0.46647368    -0.78600
O60         O  0.86489104  0.22905707  0.02725105    -0.66200
Ni61       Ni  0.65318805  0.21828097  0.01322827     1.34900
C62         C  0.84221566  0.20000831  0.03691205     0.84900
O63         O  0.71529968  0.23376983  0.43655218    -0.79200
O64         O  0.64870122  0.21104527  0.46147352    -0.89400
C65         C  0.82587739  0.28325916  0.44179348     0.84500
O66         O  0.63844323  0.27069269  0.00835492    -0.67600
O67         O  0.84590823  0.29205000  0.06566260    -0.86900
C68         C  0.65843710  0.29568993  0.49396525     0.85300
C69         C  0.67485288  0.21878794  0.43451263     1.06900
H70         H  0.76585830  0.29902035  0.02195964     0.38700
O71         O  0.77926308  0.27450126  0.01733520    -1.09600
O72         O  0.79859552  0.20093650  0.04548584    -0.66200
Ni73       Ni  0.75227822  0.24068949  0.05120022     1.26300
O74         O  0.69951746  0.29274594  0.47969070    -0.66500
O75         O  0.78600151  0.25966994  0.09050457    -0.78800
C76         C  0.67704984  0.21016816  0.08825901     0.84700
O77         O  0.72147693  0.20792965  0.08392419    -0.65900
Ni78       Ni  0.84618161  0.28027249  0.01648754     1.27400
Ni79       Ni  0.74732205  0.25316193  0.47632213     1.26100
H80         H  0.73233375  0.19761739  0.00644663     0.39200
O81         O  0.79917692  0.83886294  0.48095413    -0.80700
O82         O  0.71859824  0.67452349  0.47236047    -0.65400
O83         O  0.73457535  0.77938769  0.48987668    -1.12000
C84         C  0.82091312  0.73125538  0.08846976     1.06200
O85         O  0.69657612  0.66933034  0.02863483    -0.78600
O86         O  0.70500966  0.71772930  0.07887590    -0.66200
Ni87       Ni  0.75273339  0.81478394  0.45367053     1.34900
C88         C  0.69726373  0.75272068  0.07992928     0.84900
O89         O  0.68555305  0.73808535  0.43932686    -0.79200
O90         O  0.70787558  0.79569003  0.42220551    -0.89400
C91         C  0.69716738  0.65823611  0.99728456     0.84500
O92         O  0.80227798  0.78514550  0.43361026    -0.67600
O93         O  0.79906873  0.70119838  0.08350216    -0.86900
C94         C  0.80822878  0.75022803  0.42983994     0.85300
C95         C  0.68367066  0.76664155  0.41803564     1.06900
H96         H  0.79769886  0.71278352  0.00898924     0.38700
O97         O  0.76754257  0.72189593  0.01800551    -1.09600
O98         O  0.72136459  0.77667772  0.06189180    -0.66200
Ni99       Ni  0.77542437  0.77304051  0.02941887     1.26300
O100        O  0.78155974  0.72569617  0.44512681    -0.66500
O101        O  0.81618916  0.76111283  0.06895692    -0.78800
C102        C  0.80402865  0.84648812  0.01216317     0.84700
O103        O  0.78564412  0.82548980  0.03643023    -0.65900
Ni104      Ni  0.74888000  0.68674349  0.05424415     1.27400
Ni105      Ni  0.72761576  0.72765863  0.47848342     1.26100
H106        H  0.70363312  0.79108742  0.99937469     0.39200
O107        O  0.35337485  0.76369952  0.05293817    -0.80700
O108        O  0.22182459  0.71414027  0.43441138    -0.65400
O109        O  0.28500473  0.77364753  0.99977709    -1.12000
C110        C  0.17032071  0.72596630  0.08242661     1.06200
O111        O  0.15118008  0.73166033  0.45560119    -0.78600
O112        O  0.14321630  0.78070680  0.00763687    -0.66200
Ni113      Ni  0.35261251  0.77219555  0.00228993     1.34900
C114        C  0.16673563  0.80611500  0.02153671     0.84900
O115        O  0.29206002  0.76152198  0.42679942    -0.79200
O116        O  0.36047825  0.77725547  0.45096316    -0.89400
C117        C  0.17740359  0.71870229  0.43097516     0.84500
O118        O  0.36188798  0.71958690  0.99795402    -0.67600
O119        O  0.14498199  0.72102050  0.05545654    -0.86900
C120        C  0.33864193  0.69316813  0.48701505     0.85300
C121        C  0.33429966  0.77324172  0.42429574     1.06900
H122        H  0.22799849  0.70060241  0.01181848     0.38700
O123        O  0.21889165  0.72635317  0.00651695    -1.09600
O124        O  0.20713129  0.79960650  0.03528886    -0.66200
Ni125      Ni  0.24899862  0.75599685  0.04016272     1.26300
O126        O  0.29916703  0.69974392  0.47177268    -0.66500
O127        O  0.21244061  0.73781478  0.08015122    -0.78800
C128        C  0.32642838  0.77667762  0.07699999     0.84700
O129        O  0.28296667  0.78393543  0.07223178    -0.65900
Ni130      Ni  0.15135890  0.72773818  0.00479674     1.27400
Ni131      Ni  0.25615511  0.74260184  0.46675504     1.26100
H132        H  0.27602167  0.79946864  0.99448234     0.39200
O133        O  0.04043525  0.26884384  0.22876778    -0.74300
O134        O  0.94980743  0.27075325  0.30452936    -0.74300
O135        O  0.94505025  0.26753945  0.23354587    -0.74300
O136        O  0.04567099  0.26993807  0.29989856    -0.74400
O137        O  0.04304332  0.33237910  0.29713204    -0.74300
O138        O  0.94283201  0.32981031  0.22847301    -0.74300
O139        O  0.94728692  0.33331423  0.29993929    -0.74300
O140        O  0.03844725  0.33131993  0.22493024    -0.74300
Ni141      Ni  0.99531312  0.26709598  0.26681969     1.25400
Ni142      Ni  0.99285281  0.33400045  0.26246699     1.25400
C143        C  0.05385194  0.29980781  0.21411219     0.87900
C144        C  0.93417644  0.30257546  0.31472988     0.87800
C145        C  0.92777423  0.29786273  0.21948617     0.87900
C146        C  0.06045275  0.30122715  0.31009512     0.88000
O147        O  0.04057067  0.68020835  0.22476212    -0.74300
O148        O  0.94605153  0.68882547  0.29951914    -0.74300
O149        O  0.94543922  0.69095545  0.22693675    -0.74300
O150        O  0.04130041  0.67820669  0.29785693    -0.74400
O151        O  0.05072946  0.74003745  0.29630862    -0.74300
O152        O  0.95567836  0.75267376  0.22531489    -0.74300
O153        O  0.95586527  0.75051216  0.29806204    -0.74300
O154        O  0.05004744  0.74190903  0.22464777    -0.74300
Ni155      Ni  0.99301629  0.68230428  0.26229373     1.25400
Ni156      Ni  0.00324104  0.74842295  0.26109896     1.25400
C157        C  0.06012282  0.70991946  0.21189254     0.87900
C158        C  0.93658483  0.72115686  0.31188749     0.87800
C159        C  0.93618186  0.72375608  0.21352436     0.87900
C160        C  0.06104025  0.70726911  0.30923959     0.88000
O161        O  0.45358828  0.75314132  0.28065434    -0.74300
O162        O  0.55046935  0.75122980  0.20894075    -0.74300
O163        O  0.54921281  0.74804764  0.28085672    -0.74300
O164        O  0.45543507  0.75675399  0.20960465    -0.74400
O165        O  0.45911334  0.81900602  0.20877526    -0.74300
O166        O  0.55400649  0.81020432  0.28042240    -0.74300
O167        O  0.55530666  0.81341477  0.20805584    -0.74300
O168        O  0.45783517  0.81530601  0.28088098    -0.74300
Ni169      Ni  0.50223688  0.75016474  0.24498188     1.25400
Ni170      Ni  0.50677107  0.81677682  0.24457308     1.25400
C171        C  0.43984022  0.78455499  0.29285790     0.87900
C172        C  0.56767527  0.78162111  0.19571712     0.87800
C173        C  0.56638016  0.77769518  0.29304576     0.87900
C174        C  0.44161645  0.78906101  0.19747138     0.88000
O175        O  0.45361932  0.18356359  0.30210845    -0.74300
O176        O  0.54446704  0.16840941  0.22727134    -0.74300
O177        O  0.54929453  0.17763047  0.29856624    -0.74300
O178        O  0.44853479  0.17480787  0.23066821    -0.74400
O179        O  0.45285721  0.23676627  0.22382816    -0.74300
O180        O  0.55456944  0.23932315  0.28978091    -0.74300
O181        O  0.54829414  0.23045026  0.21937066    -0.74300
O182        O  0.45976930  0.24549954  0.29465637    -0.74300
Ni183      Ni  0.49881064  0.17383370  0.26497334     1.25400
Ni184      Ni  0.50390185  0.24012450  0.25642850     1.25400
C185        C  0.44317800  0.21691016  0.31145384     0.87900
C186        C  0.56144377  0.19730348  0.21115361     0.87800
C187        C  0.56780417  0.20888014  0.30604524     0.87900
C188        C  0.43428674  0.20582190  0.21575747     0.88000
C189        C  0.37596201  0.75957941  0.16772866    -0.12100
C190        C  0.40527916  0.79058322  0.16982145     0.04900
C191        C  0.40211113  0.81963121  0.14348332    -0.07400
C192        C  0.37306789  0.81551029  0.11440226    -0.08100
C193        C  0.34714430  0.78308948  0.11115468    -0.02700
C194        C  0.34735348  0.75537355  0.13855188     0.04100
N195        N  0.32269825  0.72118542  0.13577373     0.66600
H196        H  0.37718512  0.73726316  0.18794168     0.15500
H197        H  0.37285337  0.83683236  0.09323081     0.15200
N198        N  0.43054110  0.85206164  0.14413388     0.74300
O199        O  0.34507538  0.69321149  0.12402528    -0.39100
O200        O  0.28645172  0.71566410  0.15502584    -0.39100
O201        O  0.46810956  0.85308190  0.12560011    -0.39800
O202        O  0.41145778  0.88244845  0.15363968    -0.39800
C203        C  0.41012184  0.81258217  0.34818003    -0.12100
C204        C  0.40560471  0.78502817  0.32309929     0.04900
C205        C  0.37259907  0.75634858  0.32992767    -0.07400
C206        C  0.34849610  0.75399743  0.36261165    -0.08100
C207        C  0.35534346  0.78024583  0.38854768    -0.02700
C208        C  0.38554254  0.81043775  0.38062296     0.04100
N209        N  0.39239255  0.83896791  0.40531516     0.66600
H210        H  0.43479989  0.83504224  0.34343268     0.15500
H211        H  0.32605660  0.73037525  0.36843664     0.15200
N212        N  0.36265560  0.72958593  0.30406143     0.74300
O213        O  0.42885458  0.83714421  0.42425510    -0.39100
O214        O  0.37077576  0.87007806  0.40075162    -0.39100
O215        O  0.37790214  0.69627989  0.30858526    -0.39800
O216        O  0.32866196  0.73628339  0.28327297    -0.39800
C217        C  0.12806307  0.73650844  0.17776584    -0.12100
C218        C  0.09394537  0.70861071  0.18128359     0.04900
C219        C  0.08948055  0.68372382  0.15339962    -0.07400
C220        C  0.11650525  0.68883017  0.12217935    -0.08100
C221        C  0.14851559  0.71818307  0.11792141    -0.02700
C222        C  0.15517754  0.74153137  0.14667970     0.04100
N223        N  0.18466505  0.77339380  0.14348904     0.66600
H224        H  0.13210174  0.75601259  0.19871234     0.15500
H225        H  0.11115094  0.67039132  0.10056855     0.15200
N226        N  0.05551302  0.65475283  0.15503357     0.74300
O227        O  0.16627836  0.80414265  0.13266434    -0.39100
O228        O  0.22187163  0.77377831  0.16151618    -0.39100
O229        O  0.01728195  0.65963617  0.13840736    -0.39800
O230        O  0.06923767  0.62182525  0.16360215    -0.39800
C231        C  0.13794385  0.72292300  0.33530146    -0.12100
C232        C  0.09520025  0.70378883  0.33845721     0.04900
C233        C  0.08351212  0.68550739  0.37099570    -0.07400
C234        C  0.11265593  0.68902624  0.40021007    -0.08100
C235        C  0.15407352  0.70987195  0.39766453    -0.02700
C236        C  0.16780042  0.72559830  0.36437153     0.04100
N237        N  0.21062626  0.74570440  0.35970098     0.66600
H238        H  0.14756661  0.73681445  0.31033833     0.15500
H239        H  0.10173240  0.67664041  0.42555333     0.15200
N240        N  0.04008174  0.66619071  0.37588946     0.74300
O241        O  0.24475055  0.73030028  0.34340053    -0.39100
O242        O  0.20901580  0.78092942  0.36116457    -0.39100
O243        O  0.04110190  0.63085718  0.37656369    -0.39800
O244        O  0.00475984  0.68318635  0.38921630    -0.39800
C245        C  0.65768919  0.79838072  0.36184228    -0.12100
C246        C  0.65335238  0.76754897  0.38597361     0.04900
C247        C  0.62184508  0.73911049  0.37767019    -0.07400
C248        C  0.59489122  0.74274854  0.34686104    -0.08100
C249        C  0.59865435  0.77405904  0.32351429    -0.02700
C250        C  0.63133138  0.80171236  0.33097055     0.04100
N251        N  0.64018724  0.83256294  0.30686274     0.66600
H252        H  0.68242797  0.82031693  0.36642938     0.15500
H253        H  0.57028922  0.72092953  0.34147733     0.15200
N254        N  0.61759521  0.70567095  0.39908174     0.74300
O255        O  0.62136940  0.86411111  0.31297342    -0.39100
O256        O  0.67645395  0.83105813  0.28694859    -0.39100
O257        O  0.58263693  0.70274695  0.42015162    -0.39800
O258        O  0.63782392  0.67625921  0.38834643    -0.39800
C259        C  0.58905739  0.75119652  0.14024211    -0.12100
C260        C  0.59931159  0.77882334  0.16412152     0.04900
C261        C  0.63877892  0.80167972  0.15693794    -0.07400
C262        C  0.66879719  0.79454408  0.12771135    -0.08100
C263        C  0.65986948  0.76523495  0.10518249    -0.02700
C264        C  0.61832102  0.74445428  0.11099541     0.04100
N265        N  0.60469359  0.71660961  0.08724643     0.66600
H266        H  0.55785844  0.73435869  0.14434417     0.15500
H267        H  0.70056451  0.81070976  0.12375393     0.15200
N268        N  0.65065552  0.83068153  0.17991397     0.74300
O269        O  0.61230683  0.68253285  0.09571951    -0.39100
O270        O  0.57330725  0.72508976  0.06471953    -0.39100
O271        O  0.68318673  0.82453161  0.20205592    -0.39800
O272        O  0.63905408  0.86408873  0.17135434    -0.39800
C273        C  0.83821960  0.70826129  0.38248543    -0.12100
C274        C  0.84588794  0.73872982  0.40392568     0.04900
C275        C  0.88572035  0.76122251  0.39610483    -0.07400
C276        C  0.91441000  0.75441011  0.36637644    -0.08100
C277        C  0.90526433  0.72527255  0.34378650    -0.02700
C278        C  0.86740477  0.70129750  0.35276552     0.04100
N279        N  0.85600027  0.67117153  0.33096563     0.66600
H280        H  0.80780958  0.69083403  0.38764274     0.15500
H281        H  0.94428276  0.77234838  0.36093044     0.15200
N282        N  0.89808531  0.79109898  0.41805217     0.74300
O283        O  0.87062449  0.63849598  0.33959559    -0.39100
O284        O  0.82152577  0.67530816  0.31021240    -0.39100
O285        O  0.93139270  0.78564796  0.43967677    -0.39800
O286        O  0.88672331  0.82429845  0.40851282    -0.39800
C287        C  0.83584475  0.71015267  0.15024775    -0.12100
C288        C  0.85090726  0.73102335  0.12015031     0.04900
C289        C  0.89348838  0.75054696  0.12128130    -0.07400
C290        C  0.91966285  0.74953291  0.15265629    -0.08100
C291        C  0.90482076  0.72793931  0.18259025    -0.02700
C292        C  0.86256707  0.70796252  0.18098487     0.04100
N293        N  0.84587036  0.68544911  0.21035503     0.66600
H294        H  0.80296103  0.69511239  0.14993940     0.15500
H295        H  0.95299956  0.76393268  0.15301333     0.15200
N296        N  0.91252570  0.76843207  0.08995843     0.74300
O297        O  0.81415429  0.69884286  0.23045143    -0.39100
O298        O  0.85198922  0.65037183  0.20985460    -0.39100
O299        O  0.90369492  0.80275279  0.08360810    -0.39800
O300        O  0.92957349  0.74866383  0.06566006    -0.39800
C301        C  0.63326657  0.22023963  0.18138736    -0.12100
C302        C  0.59757549  0.19363612  0.18305982     0.04900
C303        C  0.59431429  0.16818231  0.15561082    -0.07400
C304        C  0.62345818  0.17241031  0.12561108    -0.08100
C305        C  0.65624298  0.20104652  0.12290091    -0.02700
C306        C  0.66258490  0.22416231  0.15161005     0.04100
N307        N  0.69526384  0.25404997  0.14974486     0.66600
H308        H  0.63663005  0.23965389  0.20250850     0.15500
H309        H  0.61858539  0.15457735  0.10345146     0.15200
N310        N  0.55838339  0.14086156  0.15551940     0.74300
O311        O  0.68083209  0.28618398  0.13913912    -0.39100
O312        O  0.73230870  0.25109724  0.16798013    -0.39100
O313        O  0.52524115  0.14569445  0.13371424    -0.39800
O314        O  0.56829978  0.10805270  0.16705674    -0.39800
C315        C  0.65698404  0.24185906  0.37323795    -0.12100
C316        C  0.65506099  0.21267625  0.39902892     0.04900
C317        C  0.62884882  0.18073877  0.39185513    -0.07400
C318        C  0.60341033  0.17945225  0.36042119    -0.08100
C319        C  0.60221883  0.20978764  0.33569433    -0.02700
C320        C  0.63061488  0.24102057  0.34205965     0.04100
N321        N  0.63244515  0.27267083  0.31790694     0.66600
H322        H  0.67687514  0.26663477  0.37823908     0.15500
H323        H  0.58260545  0.15496828  0.35626720     0.15200
N324        N  0.62736584  0.14921527  0.41615034     0.74300
O325        O  0.60696803  0.30127086  0.32416472    -0.39100
O326        O  0.66830479  0.27620401  0.29780146    -0.39100
O327        O  0.59076442  0.14463280  0.43527441    -0.39800
O328        O  0.65468141  0.12142885  0.41078692    -0.39800
C329        C  0.88670157  0.32613519  0.16665022    -0.12100
C330        C  0.89239264  0.29559374  0.19080066     0.04900
C331        C  0.86782076  0.26234594  0.18458471    -0.07400
C332        C  0.84183808  0.25949065  0.15362003    -0.08100
C333        C  0.83979729  0.28881474  0.12806602    -0.02700
C334        C  0.86104914  0.32301326  0.13545962     0.04100
N335        N  0.85725219  0.35488299  0.11165516     0.66600
H336        H  0.90424904  0.35215624  0.17099440     0.15500
H337        H  0.82577847  0.23302669  0.14849441     0.15200
N338        N  0.87010724  0.23043778  0.20846911     0.74300
O339        O  0.82441702  0.37882359  0.11668032    -0.39100
O340        O  0.89309090  0.36433936  0.09337237    -0.39100
O341        O  0.83439750  0.22321288  0.22780930    -0.39800
O342        O  0.89985310  0.20443574  0.20229323    -0.39800
C343        C  0.82863593  0.29364146  0.37612829    -0.12100
C344        C  0.85117064  0.29531472  0.40899588     0.04900
C345        C  0.89965377  0.30476955  0.40964799    -0.07400
C346        C  0.92535845  0.30872325  0.37815279    -0.08100
C347        C  0.90374216  0.30391413  0.34593064    -0.02700
C348        C  0.85487228  0.29806052  0.34451094     0.04100
N349        N  0.83223245  0.29560725  0.31118147     0.66600
H350        H  0.79138317  0.28715212  0.37498332     0.15500
H351        H  0.96295766  0.31430024  0.37894931     0.15200
N352        N  0.92382726  0.31002983  0.44193017     0.74300
O353        O  0.83019647  0.26420036  0.29722456    -0.39100
O354        O  0.82519490  0.32505326  0.29232473    -0.39100
O355        O  0.95226391  0.28465397  0.45321132    -0.39800
O356        O  0.92845126  0.34297215  0.45203406    -0.39800
C357        C  0.39746554  0.25003615  0.39939715    -0.12100
C358        C  0.35730442  0.22819994  0.40493255     0.04900
C359        C  0.34398439  0.20381668  0.37844761    -0.07400
C360        C  0.37222118  0.20081915  0.34781959    -0.08100
C361        C  0.41277311  0.22237247  0.34277034    -0.02700
C362        C  0.42508506  0.24748778  0.36877505     0.04100
N363        N  0.46710735  0.26896131  0.36574821     0.66600
H364        H  0.40793721  0.26916519  0.41928285     0.15500
H365        H  0.36258645  0.18138696  0.32797223     0.15200
N366        N  0.30354792  0.18071044  0.38266123     0.74300
O367        O  0.46364831  0.30281940  0.35519521    -0.39100
O368        O  0.50311601  0.25807636  0.38304800    -0.39100
O369        O  0.26651577  0.18970708  0.36574596    -0.39800
O370        O  0.30950508  0.14718195  0.39368957    -0.39800
C371        C  0.37461536  0.24213606  0.18028358    -0.12100
C372        C  0.39688409  0.20726501  0.18808288     0.04900
C373        C  0.38588545  0.17678126  0.16690331    -0.07400
C374        C  0.35773406  0.18295407  0.13670837    -0.08100
C375        C  0.33899063  0.21865393  0.12763697    -0.02700
C376        C  0.34600346  0.24803583  0.15065354     0.04100
N377        N  0.32665118  0.28477406  0.14352149     0.66600
H378        H  0.38083943  0.26575567  0.19660461     0.15500
H379        H  0.35222588  0.16001638  0.11940084     0.15200
N380        N  0.40418686  0.13977993  0.17441803     0.74300
O381        O  0.28794104  0.29399090  0.15834137    -0.39100
O382        O  0.35451899  0.31022610  0.13358351    -0.39100
O383        O  0.37721158  0.11621899  0.18937720    -0.39800
O384        O  0.43905546  0.12793107  0.15647206    -0.39800
C385        C  0.08578151  0.32390238  0.36789661    -0.12100
C386        C  0.09519878  0.30084307  0.33933490     0.04900
C387        C  0.13365323  0.27460455  0.34181152    -0.07400
C388        C  0.16036726  0.27104856  0.37290505    -0.08100
C389        C  0.14872772  0.29239838  0.40226312    -0.02700
C390        C  0.11151992  0.31953983  0.39929002     0.04100
N391        N  0.09869892  0.34250559  0.42818803     0.66600
H392        H  0.05633387  0.34397718  0.36669846     0.15500
H393        H  0.18856444  0.24992210  0.37481519     0.15200
N394        N  0.14582736  0.25095219  0.31327791     0.74300
O395        O  0.11629983  0.37451604  0.42953644    -0.39100
O396        O  0.06167820  0.33537889  0.44609716    -0.39100
O397        O  0.18050068  0.25937418  0.29331126    -0.39800
O398        O  0.13165003  0.21771705  0.31436157    -0.39800
C399        C  0.10936804  0.31632423  0.12365127    -0.12100
C400        C  0.14069226  0.28539817  0.12249676     0.04900
C401        C  0.14770027  0.26235047  0.15307458    -0.07400
C402        C  0.12055926  0.26895849  0.18339177    -0.08100
C403        C  0.08697179  0.29848353  0.18392494    -0.02700
C404        C  0.08285635  0.32342246  0.15419634     0.04100
N405        N  0.04994058  0.35450549  0.15351491     0.66600
H406        H  0.10454394  0.33453909  0.10034007     0.15500
H407        H  0.12451011  0.24997035  0.20625257     0.15200
N408        N  0.17900769  0.23031171  0.15302216     0.74300
O409        O  0.06506534  0.38677513  0.15856867    -0.39100
O410        O  0.01093657  0.35150721  0.13810786    -0.39100
O411        O  0.21813112  0.23166185  0.16857700    -0.39800
O412        O  0.16221851  0.19875787  0.14726986    -0.39800
C413        C  0.91113538  0.16166575  0.05792161    -0.12100
C414        C  0.86844223  0.16366579  0.03942563     0.04900
C415        C  0.85247755  0.13119681  0.02349405    -0.07400
C416        C  0.88033576  0.09814270  0.02515603    -0.08100
C417        C  0.92328932  0.09636516  0.04331862    -0.02700
C418        C  0.93834612  0.12836819  0.06030547     0.04100
N419        N  0.98262026  0.12842236  0.07808255     0.66600
H420        H  0.92369033  0.18628804  0.07041329     0.15500
H421        H  0.86867186  0.07382492  0.01170364     0.15200
N422        N  0.79792519  0.12159818  0.55113051     0.74300
O423        O  0.01847441  0.14094302  0.06164786    -0.39100
O424        O  0.98266672  0.12650961  0.11145122    -0.39100
O425        O  0.77540300  0.11119433  0.52481787    -0.39800
O426        O  0.77302023  0.11769076  0.01809653    -0.39800
C427        C  0.10661606  0.11076804  0.00079883    -0.12100
C428        C  0.10651024  0.08883696  0.03249274     0.04900
C429        C  0.12963148  0.10306937  0.06201709    -0.07400
C430        C  0.15098269  0.13833899  0.05927345    -0.08100
C431        C  0.14847948  0.16090149  0.02807364    -0.02700
C432        C  0.12619574  0.14637651  0.99847604     0.04100
N433        N  0.13747599  0.15681405  0.46868143     0.66600
H434        H  0.10156189  0.09144961  0.48130888     0.15500
H435        H  0.16753959  0.14893004  0.08241316     0.15200
N436        N  0.13056791  0.08310890  0.09540607     0.74300
O437        O  0.17059453  0.14791712  0.44757313    -0.39100
O438        O  0.10058178  0.17296222  0.45651194    -0.39100
O439        O  0.16825577  0.06582742  0.10449284    -0.39800
O440        O  0.10077667  0.09214422  0.11901997    -0.39800
C441        C  0.13508721  0.90781609  0.04413448    -0.12100
C442        C  0.09421351  0.91441070  0.02407952     0.04900
C443        C  0.07906735  0.88613023  0.00210340    -0.07400
C444        C  0.10416591  0.85194807  0.00119496    -0.08100
C445        C  0.14477146  0.84466764  0.02171815    -0.02700
C446        C  0.16081731  0.87368202  0.04286767     0.04100
N447        N  0.20261890  0.86931792  0.06358504     0.66600
H448        H  0.14726022  0.92941747  0.06093282     0.15500
H449        H  0.09077822  0.83060254  0.98465222     0.15200
N450        N  0.03636969  0.89039593  0.98234081     0.74300
O451        O  0.24125468  0.88086978  0.05055617    -0.39100
O452        O  0.19826216  0.86593337  0.09676629    -0.39100
O453        O  0.02973811  0.88706675  0.45821732    -0.39800
O454        O  0.99818077  0.87880119  0.99613407    -0.39800
C455        C  0.87664632  0.93457116  0.00120360    -0.12100
C456        C  0.90195123  0.93419382  0.03289538     0.04900
C457        C  0.88957286  0.90743545  0.05987653    -0.07400
C458        C  0.85508218  0.88064787  0.05362951    -0.08100
C459        C  0.83284162  0.87938196  0.02075317    -0.02700
C460        C  0.84258399  0.90803946  0.99496045     0.04100
N461        N  0.80965458  0.91437067  0.46794860     0.66600
H462        H  0.87729026  0.95750507  0.48592359     0.15500
H463        H  0.84703516  0.85983849  0.07422766     0.15200
N464        N  0.91249740  0.90587852  0.09326558     0.74300
O465        O  0.77406918  0.93645820  0.46888309    -0.39100
O466        O  0.82813538  0.90699680  0.43833966    -0.39100
O467        O  0.94378703  0.88068765  0.09930847    -0.39800
O468        O  0.89224850  0.92139150  0.11904418    -0.39800
C469        C  0.59372638  0.33809584  0.51644858    -0.12100
C470        C  0.63303545  0.33294316  0.49349676     0.04900
C471        C  0.64567185  0.36315551  0.47007468    -0.07400
C472        C  0.62094879  0.39931703  0.96817450    -0.08100
C473        C  0.57877261  0.40088641  0.49135922    -0.02700
C474        C  0.56703795  0.37169543  0.51578449     0.04100
N475        N  0.52668825  0.37514155  0.53892050     0.66600
H476        H  0.58322336  0.31581085  0.53492562     0.15500
H477        H  0.63270186  0.42249531  0.95121256     0.15200
N478        N  0.69271244  0.36535811  0.95132465     0.74300
O479        O  0.48553483  0.37251910  0.52681888    -0.39100
O480        O  0.52135044  0.38635763  0.06174642    -0.39100
O481        O  0.67996081  0.35624281  0.41459328    -0.39800
O482        O  0.72879467  0.37921446  0.96457010    -0.39800
C483        C  0.37647696  0.40428590  0.01532002    -0.12100
C484        C  0.39024993  0.41687492  0.48931319     0.04900
C485        C  0.37250089  0.40044974  0.45886176    -0.07400
C486        C  0.34784295  0.36656653  0.46201832    -0.08100
C487        C  0.34011430  0.34852285  0.49523913    -0.02700
C488        C  0.35214947  0.37077548  0.01907516     0.04100
N489        N  0.34324884  0.35612880  0.05402456     0.66600
H490        H  0.38714677  0.41749472  0.03915383     0.15500
H491        H  0.33684514  0.35340570  0.43824940     0.15200
N492        N  0.38022059  0.41730935  0.42449874     0.74300
O493        O  0.37706270  0.33969942  0.07014776    -0.39100
O494        O  0.30938190  0.37010290  0.07175707    -0.39100
O495        O  0.41437108  0.40586524  0.40549686    -0.39800
O496        O  0.35859884  0.44756662  0.41592093    -0.39800
C497        C  0.40885288  0.60658250  0.00928139    -0.12100
C498        C  0.40802632  0.58464112  0.48372287     0.04900
C499        C  0.38216538  0.59942587  0.45442979    -0.07400
C500        C  0.35805934  0.63414415  0.45659297    -0.08100
C501        C  0.35927152  0.65471782  0.48740166    -0.02700
C502        C  0.38446693  0.64063617  0.01240489     0.04100
N503        N  0.38418520  0.65776966  0.04587545     0.66600
H504        H  0.42866053  0.59583720  0.03195229     0.15500
H505        H  0.33946461  0.64560105  0.43361683     0.15200
N506        N  0.37926339  0.57968420  0.42247630     0.74300
O507        O  0.35607101  0.64555556  0.06960556    -0.39100
O508        O  0.42040378  0.67489736  0.05487716    -0.39100
O509        O  0.34265028  0.56122837  0.41720532    -0.39800
O510        O  0.40512055  0.58945899  0.39639430    -0.39800
C511        C  0.65222929  0.61495585  0.45860295    -0.12100
C512        C  0.67059026  0.62370676  0.99054960     0.04900
C513        C  0.65988251  0.59742188  0.01842365    -0.07400
C514        C  0.62682529  0.56970612  0.01352621    -0.08100
C515        C  0.60390587  0.56654379  0.98119163    -0.02700
C516        C  0.61829262  0.58727566  0.45451278     0.04100
N517        N  0.59716892  0.58453653  0.42071712     0.66600
H518        H  0.66062601  0.63369569  0.43656575     0.19700
H519        H  0.61856463  0.55077945  0.03570627     0.15200
N520        N  0.68233483  0.59804841  0.05203779     0.74300
O521        O  0.56337723  0.60673893  0.41229538    -0.39100
O522        O  0.62349321  0.57401624  0.89374103    -0.39100
O523        O  0.66890348  0.60346095  0.57927768    -0.39800
O524        O  0.71913997  0.57790763  0.05722929    -0.39800
O525        O  0.54881260  0.52880460  0.95033957    -0.74300
O526        O  0.44433287  0.46103900  0.95100975    -0.74300
O527        O  0.45259179  0.53759232  0.94805076    -0.74300
O528        O  0.53989282  0.45250907  0.95398692    -0.74400
O529        O  0.53563952  0.45068536  0.51758126    -0.74300
O530        O  0.45122374  0.53521486  0.51296944    -0.74300
O531        O  0.44115254  0.45997935  0.51641468    -0.74300
O532        O  0.54645581  0.52593165  0.51330475    -0.74300
Ni533      Ni  0.49651935  0.49499970  0.94863574     1.25400
Ni534      Ni  0.49354835  0.49311885  0.51705968     1.25400
C535        C  0.56451357  0.53736455  0.48355780     0.87900
C536        C  0.42601457  0.44941401  0.98055644     0.87800
C537        C  0.43773292  0.54970050  0.48324138     0.87900
C538        C  0.55010266  0.43789880  0.98455617     0.88000
O539        O  0.05977122  0.04363126  0.00485507    -0.74300
O540        O  0.95685081  0.97625344  0.00584530    -0.74300
O541        O  0.96523153  0.05120276  0.01001555    -0.74300
O542        O  0.05104957  0.96748221  0.00004898    -0.74400
O543        O  0.05514430  0.95787769  0.56339276    -0.74300
O544        O  0.96785924  0.04194432  0.57183131    -0.74300
O545        O  0.95928222  0.96555735  0.56749899    -0.74300
O546        O  0.06317796  0.03466461  0.56841045    -0.74300
Ni547      Ni  0.00831631  0.00981432  0.00321855     1.25400
Ni548      Ni  0.01159998  0.99964533  0.56995693     1.25400
C549        C  0.07784857  0.04973160  0.53900898     0.87900
C550        C  0.94023427  0.95861082  0.53790556     0.87800
C551        C  0.95519268  0.06026484  0.54358139     0.87900
C552        C  0.06476889  0.94561225  0.53256677     0.88000
O553        O  0.14094938  0.28337537  0.96098301    -0.80700
O554        O  0.27899004  0.21778880  0.58803147    -0.65400
O555        O  0.21327215  0.27462898  0.51492554    -1.12000
C556        C  0.33080867  0.23118669  0.93847433     1.06200
O557        O  0.35170418  0.22978978  0.56807141    -0.78600
O558        O  0.34373963  0.28645484  0.51926677    -0.66200
Ni559      Ni  0.14537076  0.27194175  0.51281053     1.34900
C560        C  0.32245631  0.31186024  0.99268373     0.84900
O561        O  0.20819340  0.26583677  0.58896189    -0.79200
O562        O  0.13786828  0.27403764  0.56313628    -0.89400
C563        C  0.32315102  0.22003865  0.59284786     0.84500
O564        O  0.14458323  0.21841378  0.51396640    -0.67600
O565        O  0.35584372  0.23581946  0.96569896    -0.86900
C566        C  0.16835145  0.19408512  0.53209991     0.85300
C567        C  0.16440842  0.27397481  0.58994449     1.06900
H568        H  0.27721832  0.20026332  0.51148379     0.38700
O569        O  0.28261374  0.22651520  0.51395228    -1.09600
O570        O  0.28991796  0.30077695  0.97259452    -0.66200
Ni571      Ni  0.24857416  0.25720655  0.97484176     1.26300
O572        O  0.20447356  0.20223385  0.55002337    -0.66500
O573        O  0.28580932  0.23329180  0.93911119    -0.78800
C574        C  0.16910667  0.28734177  0.93475105     0.84700
O575        O  0.21374014  0.28226694  0.93719757    -0.65900
Ni576      Ni  0.34958342  0.23332838  0.51695830     1.27400
Ni577      Ni  0.24499017  0.24552333  0.55183459     1.26100
H578        H  0.22076710  0.30101226  0.51753791     0.39200
O579        O  0.64765385  0.21731664  0.56296005    -0.80700
O580        O  0.78225934  0.28777249  0.94464392    -0.65400
O581        O  0.71911057  0.21945248  0.51051923    -1.12000
C582        C  0.82008244  0.27836513  0.59180824     1.06200
O583        O  0.85183312  0.27041250  0.96711057    -0.78600
O584        O  0.86262903  0.22640179  0.52694337    -0.66200
Ni585      Ni  0.65193407  0.21532172  0.51209848     1.34900
C586        C  0.84098131  0.19738711  0.53823460     0.84900
O587        O  0.71625656  0.23593301  0.93752629    -0.79200
O588        O  0.65025007  0.21251188  0.96291078    -0.89400
C589        C  0.82716264  0.28512089  0.94217726     0.84500
O590        O  0.63751420  0.26792018  0.50866501    -0.67600
O591        O  0.84422138  0.28941026  0.56483051    -0.86900
C592        C  0.65963448  0.29839957  0.99381300     0.85300
C593        C  0.67624606  0.22011133  0.93583935     1.06900
H594        H  0.76428430  0.29637385  0.52135803     0.38700
O595        O  0.77760818  0.27181729  0.51679751    -1.09600
O596        O  0.79733280  0.19835039  0.54674916    -0.66200
Ni597      Ni  0.75053910  0.23814299  0.55083948     1.26300
O598        O  0.70110623  0.29543543  0.98022135    -0.66500
O599        O  0.78371091  0.25788977  0.58999978    -0.78800
C600        C  0.67530437  0.20601791  0.58767679     0.84700
O601        O  0.71985692  0.20544400  0.58388654    -0.65900
Ni602      Ni  0.84436817  0.27749223  0.51577126     1.27400
Ni603      Ni  0.74861514  0.25567529  0.97703699     1.26100
H604        H  0.73159956  0.19470503  0.50593099     0.39200
O605        O  0.80175824  0.83830229  0.97989046    -0.80700
O606        O  0.71620593  0.67813688  0.97241903    -0.65400
O607        O  0.73383747  0.78228743  0.99025405    -1.12000
C608        C  0.82326246  0.72871289  0.58753111     1.06200
O609        O  0.69953382  0.66582368  0.52871086    -0.78600
O610        O  0.70832747  0.71364030  0.57955327    -0.66200
Ni611      Ni  0.75083880  0.81799457  0.95415418     1.34900
C612        C  0.69904639  0.74847804  0.58030649     0.84900
O613        O  0.68397284  0.74211822  0.94001645    -0.79200
O614        O  0.70147304  0.80165457  0.92477808    -0.89400
C615        C  0.70007446  0.65451651  0.49744766     0.84500
O616        O  0.79641483  0.78782632  0.92999591    -0.67600
O617        O  0.80286997  0.69811277  0.58220504    -0.86900
C618        C  0.80412761  0.75286356  0.92780711     0.85300
C619        C  0.67916650  0.77165549  0.92022935     1.06900
H620        H  0.79969828  0.71072575  0.50846080     0.38700
O621        O  0.76932318  0.71923284  0.51756781    -1.09600
O622        O  0.72159964  0.77282723  0.56155969    -0.66200
Ni623      Ni  0.77594703  0.77040454  0.52926517     1.26300
O624        O  0.77991424  0.72836210  0.94542985    -0.66500
O625        O  0.81683167  0.75882916  0.56871648    -0.78800
C626        C  0.80189636  0.84531460  0.51359636     0.84700
O627        O  0.78470019  0.82287728  0.53717966    -0.65900
Ni628      Ni  0.75210212  0.68347636  0.55372291     1.27400
Ni629      Ni  0.72602800  0.73094133  0.97886526     1.26100
H630        H  0.70419793  0.78818170  0.49869181     0.39200
O631        O  0.35641847  0.76668714  0.55247497    -0.80700
O632        O  0.22099765  0.71613432  0.93330247    -0.65400
O633        O  0.28654687  0.77248224  0.50009065    -1.12000
C634        C  0.17359147  0.72314362  0.58386333     1.06200
O635        O  0.14972854  0.73317054  0.95391169    -0.78600
O636        O  0.14375349  0.77730444  0.51085927    -0.66200
Ni637      Ni  0.35431856  0.77137439  0.50173700     1.34900
C638        C  0.16737173  0.80328260  0.52374359     0.84900
O639        O  0.29255008  0.76299271  0.92658990    -0.79200
O640        O  0.35926102  0.78128742  0.95178914    -0.89400
C641        C  0.17649664  0.71983233  0.92982545     0.84500
O642        O  0.36237392  0.71833097  0.50085300    -0.67600
O643        O  0.14858592  0.71650166  0.55709995    -0.86900
C644        C  0.33761272  0.69448111  0.98455679     0.85300
C645        C  0.33420627  0.77621893  0.92466053     1.06900
H646        H  0.23108109  0.69886797  0.51303929     0.38700
O647        O  0.22128532  0.72445504  0.50768595    -1.09600
O648        O  0.20882329  0.79774491  0.53587131    -0.66200
Ni649      Ni  0.25122503  0.75468558  0.54089788     1.26300
O650        O  0.29700969  0.70091386  0.97110047    -0.66500
O651        O  0.21490826  0.73664971  0.58122039    -0.78800
C652        C  0.32881993  0.77834309  0.57672583     0.84700
O653        O  0.28479821  0.78334601  0.57262026    -0.65900
Ni654      Ni  0.15376819  0.72465094  0.50646200     1.27400
Ni655      Ni  0.25498978  0.74427612  0.96599620     1.26100
H656        H  0.27724840  0.79823138  0.49473761     0.39200
O657        O  0.03823998  0.26795990  0.72714657    -0.74300
O658        O  0.94825157  0.26874907  0.80319337    -0.74300
O659        O  0.94268075  0.26588481  0.73231018    -0.74300
O660        O  0.04405668  0.26883197  0.79811589    -0.74400
O661        O  0.04084984  0.33127904  0.79503117    -0.74300
O662        O  0.93980001  0.32821682  0.72769306    -0.74300
O663        O  0.94547910  0.33133853  0.79894092    -0.74300
O664        O  0.03544448  0.33042894  0.72324156    -0.74300
Ni665      Ni  0.99338963  0.26564486  0.76527882     1.25400
Ni666      Ni  0.99025844  0.33258233  0.76105179     1.25400
C667        C  0.05170455  0.29904590  0.71275393     0.87900
C668        C  0.93275824  0.30047419  0.81368786     0.87800
C669        C  0.92485894  0.29626797  0.71872255     0.87900
C670        C  0.05864248  0.30031877  0.80800899     0.88000
O671        O  0.04132396  0.67854442  0.72551250    -0.74300
O672        O  0.94436404  0.68817281  0.79903011    -0.74300
O673        O  0.94604890  0.68981488  0.72633665    -0.74300
O674        O  0.03972540  0.67663797  0.79851659    -0.74400
O675        O  0.04950328  0.73843614  0.79688382    -0.74300
O676        O  0.95688365  0.75146975  0.72441310    -0.74300
O677        O  0.95471520  0.74976494  0.79709282    -0.74300
O678        O  0.05115238  0.74015770  0.72538543    -0.74300
Ni679      Ni  0.99247165  0.68103810  0.76237834     1.25400
Ni680      Ni  0.00322822  0.74707490  0.76097402     1.25400
C681        C  0.06164627  0.70810617  0.71291762     0.87900
C682        C  0.93471393  0.72073754  0.81095441     0.87800
C683        C  0.93743362  0.72256102  0.71261396     0.87900
C684        C  0.05959348  0.70562882  0.80981887     0.88000
O685        O  0.45282453  0.75486851  0.78092918    -0.74300
O686        O  0.55115847  0.74966697  0.71019472    -0.74300
O687        O  0.54827215  0.74768944  0.78240362    -0.74300
O688        O  0.45626957  0.75734632  0.70978260    -0.74400
O689        O  0.46169394  0.81951122  0.70861833    -0.74300
O690        O  0.55614858  0.80970142  0.78031659    -0.74300
O691        O  0.55756177  0.81172318  0.70794619    -0.74300
O692        O  0.46004917  0.81682536  0.78087212    -0.74300
Ni693      Ni  0.50213913  0.75024616  0.74581312     1.25400
Ni694      Ni  0.50913351  0.81671684  0.74445294     1.25400
C695        C  0.44052877  0.78670401  0.79298015     0.87900
C696        C  0.56921333  0.77945319  0.69628659     0.87800
C697        C  0.56658472  0.77722363  0.79389489     0.87900
C698        C  0.44362054  0.78981379  0.69731866     0.88000
O699        O  0.45601863  0.17911268  0.80395339    -0.74300
O700        O  0.54720345  0.16359282  0.72959925    -0.74300
O701        O  0.55186727  0.17382621  0.80083448    -0.74300
O702        O  0.45163059  0.16935459  0.73261197    -0.74400
O703        O  0.45593064  0.23123262  0.72479015    -0.74300
O704        O  0.55672783  0.23544730  0.79114009    -0.74300
O705        O  0.55135299  0.22558098  0.72078561    -0.74300
O706        O  0.46176139  0.24098971  0.79557045    -0.74300
Ni707      Ni  0.50159915  0.16920871  0.76714164     1.25400
Ni708      Ni  0.50647233  0.23543735  0.75761306     1.25400
C709        C  0.44509524  0.21256904  0.81265678     0.87900
C710        C  0.56367622  0.19223248  0.71277093     0.87800
C711        C  0.57011429  0.20532656  0.80783641     0.87900
C712        C  0.43757000  0.20008477  0.71708246     0.88000
C713        C  0.37628164  0.76229804  0.66801939    -0.12100
C714        C  0.40786236  0.79192510  0.66934862     0.04900
C715        C  0.40734287  0.82007757  0.64208262    -0.07400
C716        C  0.37829911  0.81633280  0.61295161    -0.08100
C717        C  0.34958600  0.78527428  0.61070708    -0.02700
C718        C  0.34745895  0.75857032  0.63889534     0.04100
N719        N  0.32036540  0.72549496  0.63685549     0.66600
H720        H  0.37575380  0.74064527  0.68887212     0.15500
H721        H  0.38006235  0.83677492  0.59107532     0.15200
N722        N  0.43837614  0.85102552  0.64194990     0.74300
O723        O  0.34064329  0.69625823  0.62581271    -0.39100
O724        O  0.28342007  0.72225005  0.65581348    -0.39100
O725        O  0.47609611  0.84963240  0.62360791    -0.39800
O726        O  0.42178360  0.88253705  0.65065309    -0.39800
C727        C  0.41429573  0.81378724  0.84971756    -0.12100
C728        C  0.40640200  0.78821596  0.82334631     0.04900
C729        C  0.37009938  0.76193214  0.82901742    -0.07400
C730        C  0.34611197  0.75951774  0.86178941    -0.08100
C731        C  0.35600055  0.78364097  0.88900047    -0.02700
C732        C  0.38954861  0.81186834  0.88216788     0.04100
N733        N  0.39939688  0.83878876  0.90781792     0.66600
H734        H  0.44154115  0.83445605  0.84585175     0.15500
H735        H  0.32101312  0.73746637  0.86653812     0.15200
N736        N  0.35609718  0.73817145  0.80166511     0.74300
O737        O  0.43559682  0.83383760  0.92675963    -0.39100
O738        O  0.38123230  0.87130622  0.90413470    -0.39100
O739        O  0.36465273  0.70339779  0.80492741    -0.39800
O740        O  0.32419332  0.74988295  0.78068508    -0.39800
C741        C  0.12796416  0.73664143  0.67795515    -0.12100
C742        C  0.09671255  0.70675403  0.68283567     0.04900
C743        C  0.09608469  0.67965335  0.65651595    -0.07400
C744        C  0.12349181  0.68448437  0.62536739    -0.08100
C745        C  0.15214682  0.71576642  0.61960789    -0.02700
C746        C  0.15519451  0.74152469  0.64686653     0.04100
N747        N  0.18030876  0.77554271  0.64168735     0.66600
H748        H  0.12928547  0.75788851  0.69759521     0.15500
H749        H  0.12087899  0.66427672  0.60487173     0.15200
N750        N  0.06556374  0.64842212  0.65954271     0.74300
O751        O  0.15832152  0.80388900  0.62878161    -0.39100
O752        O  0.21706576  0.78027398  0.65938789    -0.39100
O753        O  0.02722644  0.64970406  0.64274532    -0.39800
O754        O  0.08275132  0.61697378  0.66971297    -0.39800
C755        C  0.13600857  0.72257752  0.83494297    -0.12100
C756        C  0.09436988  0.70212037  0.83846403     0.04900
C757        C  0.08453140  0.68264775  0.87074969    -0.07400
C758        C  0.11383441  0.68704850  0.89971776    -0.08100
C759        C  0.15370834  0.70966520  0.89687660    -0.02700
C760        C  0.16613037  0.72597594  0.86361594     0.04100
N761        N  0.20780758  0.74742604  0.85860535     0.66600
H762        H  0.14440445  0.73709813  0.81003343     0.15500
H763        H  0.10421360  0.67398065  0.92506486     0.15200
N764        N  0.04299959  0.66090004  0.87559704     0.74300
O765        O  0.24150809  0.73384852  0.84048626    -0.39100
O766        O  0.20488289  0.78242583  0.86181089    -0.39100
O767        O  0.04704921  0.62567445  0.87519666    -0.39800
O768        O  0.00660926  0.67553004  0.88980012    -0.39800
C769        C  0.66366250  0.79382741  0.85892621    -0.12100
C770        C  0.64925053  0.77150397  0.88838063     0.04900
C771        C  0.60860521  0.74957125  0.88557463    -0.07400
C772        C  0.58321408  0.75098391  0.85396653    -0.08100
C773        C  0.59737445  0.77395727  0.82498039    -0.02700
C774        C  0.63842567  0.79516152  0.82750369     0.04100
N775        N  0.65676890  0.81646832  0.79788530     0.66600
H776        H  0.69558444  0.81000079  0.85991524     0.15500
H777        H  0.55131153  0.73485676  0.85246773     0.15200
N778        N  0.59129238  0.72696632  0.91466291     0.74300
O779        O  0.64924776  0.85143547  0.79621038    -0.39100
O780        O  0.69087427  0.80273826  0.78022917    -0.39100
O781        O  0.55661589  0.73912570  0.93273351    -0.39800
O782        O  0.60018538  0.69219439  0.91514996    -0.39800
C783        C  0.59230853  0.74601276  0.64248464    -0.12100
C784        C  0.60121974  0.77540681  0.66485058     0.04900
C785        C  0.63933527  0.79920967  0.65602780    -0.07400
C786        C  0.66944283  0.79133464  0.62701757    -0.08100
C787        C  0.66177303  0.76056104  0.60597192    -0.02700
C788        C  0.62141422  0.73875794  0.61319395     0.04100
N789        N  0.60818503  0.70994977  0.59034599     0.66600
H790        H  0.56196087  0.72846707  0.64754783     0.15500
H791        H  0.70010456  0.80848964  0.62184944     0.15200
N792        N  0.64934988  0.83052655  0.67675321     0.74300
O793        O  0.61578763  0.67616706  0.59993709    -0.39100
O794        O  0.57724234  0.71756631  0.56725743    -0.39100
O795        O  0.68250750  0.82755494  0.69875781    -0.39800
O796        O  0.63564623  0.86275455  0.66587704    -0.39800
C797        C  0.83510982  0.70944773  0.88146502    -0.12100
C798        C  0.84155180  0.74114510  0.90161520     0.04900
C799        C  0.88061572  0.76410875  0.89283210    -0.07400
C800        C  0.90990645  0.75638001  0.86361461    -0.08100
C801        C  0.90231484  0.72577713  0.84235993    -0.02700
C802        C  0.86500495  0.70151262  0.85223752     0.04100
N803        N  0.85518701  0.66975900  0.83205739     0.66600
H804        H  0.80534363  0.69156398  0.88739399     0.15500
H805        H  0.93920790  0.77473344  0.85762107     0.15200
N806        N  0.89184944  0.79528298  0.91350694     0.74300
O807        O  0.86977500  0.63781285  0.84305331    -0.39100
O808        O  0.82177807  0.67210133  0.81023513    -0.39100
O809        O  0.92409938  0.79117362  0.93617301    -0.39800
O810        O  0.88074028  0.82791412  0.90209513    -0.39800
C811        C  0.83760358  0.70872087  0.64937585    -0.12100
C812        C  0.85318111  0.72887078  0.61905767     0.04900
C813        C  0.89600052  0.74808282  0.61988455    -0.07400
C814        C  0.92202653  0.74742768  0.65130351    -0.08100
C815        C  0.90656207  0.72658548  0.68152316    -0.02700
C816        C  0.86401838  0.70699234  0.68018644     0.04100
N817        N  0.84663795  0.68546189  0.70997600     0.66600
H818        H  0.80448197  0.69397976  0.64919528     0.15500
H819        H  0.95559313  0.76151383  0.65153983     0.15200
N820        N  0.91532097  0.76523365  0.58829599     0.74300
O821        O  0.81494557  0.69975102  0.72953227    -0.39100
O822        O  0.85222938  0.65030441  0.71042084    -0.39100
O823        O  0.90618269  0.79932636  0.58102428    -0.39800
O824        O  0.93281879  0.74488436  0.56460277    -0.39800
C825        C  0.64090171  0.20466114  0.68458368    -0.12100
C826        C  0.59704627  0.18752164  0.68328896     0.04900
C827        C  0.58339792  0.17107148  0.65197763    -0.07400
C828        C  0.61147611  0.17527202  0.62154211    -0.08100
C829        C  0.65361078  0.19505412  0.62194221    -0.02700
C830        C  0.66979425  0.20790279  0.65435953     0.04100
N831        N  0.71425079  0.22555533  0.65707693     0.66600
H832        H  0.65195041  0.21686678  0.70884964     0.15500
H833        H  0.59903171  0.16459573  0.59697941     0.15200
N834        N  0.53905547  0.15326749  0.64951140     0.74300
O835        O  0.71535051  0.26084905  0.65511547    -0.39100
O836        O  0.74732967  0.20748941  0.67260502    -0.39100
O837        O  0.50504778  0.17135002  0.63513555    -0.39800
O838        O  0.53858792  0.11794791  0.65101216    -0.39800
C839        C  0.66007203  0.24004653  0.87342676    -0.12100
C840        C  0.65675536  0.21243909  0.90062699     0.04900
C841        C  0.62930405  0.18070828  0.89501380    -0.07400
C842        C  0.60426660  0.17809819  0.86355917    -0.08100
C843        C  0.60439509  0.20705014  0.83742124    -0.02700
C844        C  0.63375135  0.23806682  0.84234960     0.04100
N845        N  0.63625989  0.26855788  0.81692417     0.66600
H846        H  0.68078755  0.26467860  0.87725131     0.15500
H847        H  0.58241636  0.15394293  0.86058601     0.15200
N848        N  0.62542863  0.15106683  0.92121697     0.74300
O849        O  0.61126598  0.29773410  0.82189357    -0.39100
O850        O  0.67215509  0.27070038  0.79668420    -0.39100
O851        O  0.58862729  0.14970407  0.94058213    -0.39800
O852        O  0.65059669  0.12168955  0.91782785    -0.39800
C853        C  0.88576317  0.32411942  0.66520776    -0.12100
C854        C  0.88932820  0.29425512  0.69027310     0.04900
C855        C  0.86336459  0.26159721  0.68476534    -0.07400
C856        C  0.83860637  0.25829822  0.65332220    -0.08100
C857        C  0.83802055  0.28700719  0.62713977    -0.02700
C858        C  0.86070400  0.32077543  0.63384213     0.04100
N859        N  0.85991399  0.35168317  0.60880978     0.66600
H860        H  0.90476938  0.34962168  0.66890860     0.15500
H861        H  0.82264487  0.23188744  0.64825218     0.15200
N862        N  0.86240765  0.23099155  0.71016048     0.74300
O863        O  0.82871124  0.37726036  0.61227889    -0.39100
O864        O  0.89699339  0.35870630  0.59093403    -0.39100
O865        O  0.82629706  0.22754817  0.73001435    -0.39800
O866        O  0.88868182  0.20254060  0.70506576    -0.39800
C867        C  0.82940029  0.28867201  0.87648668    -0.12100
C868        C  0.85142994  0.29540071  0.90867381     0.04900
C869        C  0.89861647  0.30801693  0.90827138    -0.07400
C870        C  0.92368567  0.31109106  0.87643351    -0.08100
C871        C  0.90274265  0.30170678  0.84502907    -0.02700
C872        C  0.85505579  0.29173300  0.84459759     0.04100
N873        N  0.83310499  0.28375525  0.81206471     0.66600
H874        H  0.79317135  0.27928324  0.87625674     0.15500
H875        H  0.96037932  0.31950715  0.87641736     0.15200
N876        N  0.92203745  0.31742811  0.93983560     0.74300
O877        O  0.83531061  0.25076393  0.80134135    -0.39100
O878        O  0.82212603  0.31039151  0.79065692    -0.39100
O879        O  0.95248984  0.29463687  0.95288897    -0.39800
O880        O  0.92357791  0.35145581  0.94741364    -0.39800
C881        C  0.39833178  0.24689610  0.89980438    -0.12100
C882        C  0.35682662  0.22646414  0.90472597     0.04900
C883        C  0.34338111  0.20212695  0.87822257    -0.07400
C884        C  0.37247203  0.19809701  0.84808318    -0.08100
C885        C  0.41414064  0.21847138  0.84363072    -0.02700
C886        C  0.42691842  0.24315232  0.86981846     0.04100
N887        N  0.47040120  0.26284200  0.86768290     0.66600
H888        H  0.40916538  0.26585707  0.91971959     0.15500
H889        H  0.36259768  0.17884833  0.82814710     0.15200
N890        N  0.30196982  0.18004950  0.88199046     0.74300
O891        O  0.46964866  0.29662496  0.85671031    -0.39100
O892        O  0.50502345  0.25061437  0.88583440    -0.39100
O893        O  0.26566016  0.18980717  0.86453621    -0.39800
O894        O  0.30636057  0.14651346  0.89337545    -0.39800
C895        C  0.37800632  0.23582890  0.68130836    -0.12100
C896        C  0.40052430  0.20110199  0.68916990     0.04900
C897        C  0.39010189  0.17056542  0.66785603    -0.07400
C898        C  0.36249985  0.17674151  0.63731603    -0.08100
C899        C  0.34306399  0.21232525  0.62845122    -0.02700
C900        C  0.34932605  0.24156078  0.65174600     0.04100
N901        N  0.32882479  0.27801033  0.64512359     0.66600
H902        H  0.38370540  0.25943780  0.69776498     0.15500
H903        H  0.35725149  0.15381351  0.61995193     0.15200
N904        N  0.40710975  0.13334554  0.67627033     0.74300
O905        O  0.28915683  0.28579297  0.65923056    -0.39100
O906        O  0.35607794  0.30443844  0.63688829    -0.39100
O907        O  0.38036120  0.11166716  0.69394540    -0.39800
O908        O  0.43930135  0.11916249  0.65714290    -0.39800
C909        C  0.08440195  0.32559309  0.86430283    -0.12100
C910        C  0.09341200  0.30079110  0.83706232     0.04900
C911        C  0.13150710  0.27439268  0.84072891    -0.07400
C912        C  0.15879659  0.27293131  0.87156005    -0.08100
C913        C  0.14745956  0.29602921  0.89979912    -0.02700
C914        C  0.11002084  0.32285198  0.89573826     0.04100
N915        N  0.09598322  0.34652491  0.92383458     0.66600
H916        H  0.05495164  0.34561339  0.86228216     0.15500
H917        H  0.18680404  0.25174610  0.87443545     0.15200
N918        N  0.14213528  0.24801195  0.81410465     0.74300
O919        O  0.11004436  0.37977705  0.92315607    -0.39100
O920        O  0.06017762  0.33810253  0.94263236    -0.39100
O921        O  0.17615668  0.25416734  0.79279738    -0.39800
O922        O  0.12746890  0.21505317  0.81835297    -0.39800
C923        C  0.11246191  0.31573824  0.62421800    -0.12100
C924        C  0.14247224  0.28393863  0.62361535     0.04900
C925        C  0.14779270  0.26092545  0.65436655    -0.07400
C926        C  0.11939787  0.26785154  0.68390524    -0.08100
C927        C  0.08648207  0.29785634  0.68363526    -0.02700
C928        C  0.08507981  0.32340031  0.65423263     0.04100
N929        N  0.05475188  0.35607182  0.65353610     0.66600
H930        H  0.10940672  0.33421276  0.60091924     0.15500
H931        H  0.12185122  0.24870565  0.70676819     0.15200
N932        N  0.17877111  0.22868560  0.65525204     0.74300
O933        O  0.07186852  0.38697642  0.66121586    -0.39100
O934        O  0.01711546  0.35613514  0.63593674    -0.39100
O935        O  0.21729275  0.23000378  0.67160092    -0.39800
O936        O  0.16192706  0.19715275  0.64951882    -0.39800
C937        C  0.91845841  0.16272113  0.53902921    -0.12100
C938        C  0.86878951  0.16129860  0.54187001     0.04900
C939        C  0.84806149  0.12568878  0.54783671    -0.07400
C940        C  0.87701837  0.09308135  0.54965113    -0.08100
C941        C  0.92628901  0.09501095  0.54575579    -0.02700
C942        C  0.94702107  0.13025331  0.54078120     0.04100
N943        N  0.99713688  0.13376421  0.53683420     0.66600
H944        H  0.93571180  0.18932719  0.53503841     0.15500
H945        H  0.86077984  0.06599876  0.55319873     0.15200
N946        N  0.80959222  0.13168369  0.00386942     0.74300
O947        O  0.01456475  0.13808513  0.50608530    -0.39100
O948        O  0.02044236  0.14403717  0.56281120    -0.39100
O949        O  0.81195527  0.13548027  0.97059387    -0.39800
O950        O  0.77970192  0.11718026  0.58163347    -0.39800
C951        C  0.11517839  0.10261641  0.50525531    -0.12100
C952        C  0.10953307  0.08297318  0.53794849     0.04900
C953        C  0.12879016  0.09883202  0.56829623    -0.07400
C954        C  0.15017941  0.13409795  0.56545634    -0.08100
C955        C  0.15198376  0.15472205  0.53313591    -0.02700
C956        C  0.13509001  0.13809641  0.50268187     0.04100
N957        N  0.12200123  0.16751145  0.96578816     0.66600
H958        H  0.08904261  0.10120380  0.97765879     0.15500
H959        H  0.16339810  0.14620919  0.58910293     0.15200
N960        N  0.12639147  0.08029888  0.60235363     0.74300
O961        O  0.15038916  0.16031130  0.94070307    -0.39100
O962        O  0.08319300  0.18437909  0.95890104    -0.39100
O963        O  0.16298640  0.06321560  0.61393682    -0.39800
O964        O  0.09471046  0.09058718  0.62408438    -0.39800
C965        C  0.13514096  0.90467910  0.54687979    -0.12100
C966        C  0.09225440  0.91015186  0.52906501     0.04900
C967        C  0.07559458  0.88118436  0.50858966    -0.07400
C968        C  0.10150239  0.84748941  0.50665800    -0.08100
C969        C  0.14428222  0.84133916  0.52483196    -0.02700
C970        C  0.16152691  0.87092716  0.54474434     0.04100
N971        N  0.20524353  0.86750995  0.56330008     0.66600
H972        H  0.14842655  0.92687984  0.56246727     0.15500
H973        H  0.08705155  0.82561678  0.49126588     0.15200
N974        N  0.03071739  0.88427480  0.49154930     0.74300
O975        O  0.24226825  0.88002708  0.54847430    -0.39100
O976        O  0.20405531  0.86344880  0.59656078    -0.39100
O977        O  0.03926970  0.89491062  0.94914237    -0.39800
O978        O  0.99429836  0.87325165  0.50829035    -0.39800
C979        C  0.87198228  0.93497826  0.50546554    -0.12100
C980        C  0.90006432  0.93221205  0.53578970     0.04900
C981        C  0.89010503  0.90343227  0.56147711    -0.07400
C982        C  0.85489897  0.87725074  0.55521647    -0.08100
C983        C  0.82998973  0.87824153  0.52335121    -0.02700
C984        C  0.83740087  0.90880447  0.49909108     0.04100
N985        N  0.81766277  0.91141684  0.96232539     0.66600
H986        H  0.88361736  0.95554606  0.98046043     0.15500
H987        H  0.84877948  0.85487623  0.57468490     0.15200
N988        N  0.91709184  0.89862410  0.59298828     0.74300
O989        O  0.78258647  0.93396232  0.96004821    -0.39100
O990        O  0.83847297  0.90152695  0.93428752    -0.39100
O991        O  0.95022625  0.87422954  0.59411061    -0.39800
O992        O  0.89946702  0.91000231  0.62161870    -0.39800
C993        C  0.59157767  0.33977255  0.01243407    -0.12100
C994        C  0.63388162  0.33551924  0.99245561     0.04900
C995        C  0.64901585  0.36642601  0.97082401    -0.07400
C996        C  0.61803716  0.39631250  0.46885263    -0.08100
C997        C  0.57873323  0.40291234  0.98763058    -0.02700
C998        C  0.56440217  0.37308296  0.01042833     0.04100
N999        N  0.52100146  0.37559314  0.03036564     0.66600
H1000       H  0.57900775  0.31698713  0.02951297     0.15500
H1001       H  0.62775529  0.41888344  0.45041579     0.15200
N1002       N  0.68613932  0.36098532  0.44706131     0.74300
O1003       O  0.48197676  0.37254545  0.01503220    -0.39100
O1004       O  0.53179431  0.38659824  0.56974402    -0.39100
O1005       O  0.69174500  0.36145857  0.91834108    -0.39800
O1006       O  0.72433673  0.37489927  0.45663900    -0.39800
C1007       C  0.37856233  0.40055598  0.52247168    -0.12100
C1008       C  0.39037886  0.41902242  0.98200318     0.04900
C1009       C  0.37470345  0.40113808  0.95166900    -0.07400
C1010       C  0.34967561  0.36742110  0.95538559    -0.08100
C1011       C  0.33974088  0.35103788  0.98903817    -0.02700
C1012       C  0.35435502  0.36687598  0.52566535     0.04100
N1013       N  0.34745031  0.35068410  0.56027646     0.66600
H1014       H  0.39085938  0.41265844  0.54640748     0.15500
H1015       H  0.34016690  0.35307000  0.93188762     0.15200
N1016       N  0.38495763  0.41627790  0.91699093     0.74300
O1017       O  0.38239040  0.33411462  0.57486788    -0.39100
O1018       O  0.31424440  0.36348383  0.57942755    -0.39100
O1019       O  0.42079611  0.40426076  0.90011297    -0.39800
O1020       O  0.36352227  0.44580298  0.90605047    -0.39800
C1021       C  0.40701870  0.60462347  0.51501924    -0.12100
C1022       C  0.40865952  0.58684784  0.97786344     0.04900
C1023       C  0.38147983  0.60174777  0.94928980    -0.07400
C1024       C  0.35676528  0.63617757  0.95248141    -0.08100
C1025       C  0.35884446  0.65628253  0.98358821    -0.02700
C1026       C  0.38315523  0.63910448  0.51713054     0.04100
N1027       N  0.38164233  0.65673667  0.55037764     0.66600
H1028       H  0.42558835  0.59382063  0.53825050     0.15500
H1029       H  0.33696478  0.64776104  0.93013502     0.15200
N1030       N  0.37773806  0.58239263  0.91717442     0.74300
O1031       O  0.35178388  0.64557443  0.57334546    -0.39100
O1032       O  0.41794826  0.67312657  0.56033201    -0.39100
O1033       O  0.34123850  0.56362004  0.91241795    -0.39800
O1034       O  0.40244353  0.59282737  0.89068526    -0.39800
C1035       C  0.65101714  0.61861938  0.95729504    -0.12100
C1036       C  0.67360179  0.61977686  0.49118009     0.04900
C1037       C  0.66412465  0.59335737  0.51916540    -0.07400
C1038       C  0.62979034  0.56631754  0.51536044    -0.08100
C1039       C  0.60486408  0.56370809  0.48379429    -0.02700
C1040       C  0.61802802  0.59041785  0.95232433     0.04100
N1041       N  0.59817981  0.58766202  0.91809962     0.66600
H1042       H  0.65970676  0.63764802  0.93533810     0.19700
H1043       H  0.62238758  0.54733586  0.53767389     0.15200
N1044       N  0.68972671  0.59280428  0.55151715     0.74300
O1045       O  0.56231132  0.60780811  0.91001940    -0.39100
O1046       O  0.62039794  0.56844977  0.39662142    -0.39100
O1047       O  0.65868596  0.60914210  0.07840492    -0.39800
O1048       O  0.72639989  0.57200049  0.55433321    -0.39800
loop_ 
_geom_bond_atom_site_label_1 
_geom_bond_atom_site_label_2 
_geom_bond_distance 
_geom_bond_site_symmetry_2 
_ccdc_geom_bond_type 
O1           Ni9   1.932       .  S
O1          C535   1.282       .  A
O2           Ni9   1.927       .  S
O2           C12   1.283       .  A
O3           Ni9   1.932       .  S
O3          C537   1.283       .  A
O4           Ni9   1.928       .  S
O4           C14   1.284       .  A
O5          Ni10   1.899       .  S
O5          C538   1.276   1_554  A
O6          Ni10   1.894       .  S
O6           C13   1.279   1_554  A
O7          Ni10   1.913       .  S
O7          C536   1.282   1_554  A
O8          Ni10   1.918       .  S
O8           C11   1.284   1_554  A
Ni9        Ni534   2.383       .  S
Ni10       Ni533   2.383   1_554  S
C11         O525   1.283       .  A
C11         C515   1.495       .  S
C12         O531   1.283       .  A
C12         C484   1.498       .  S
C13         O527   1.284       .  A
C13        C1022   1.487       .  S
C14         O529   1.277       .  A
C14         C473   1.475       .  S
O15         Ni23   1.917       .  S
O15         C549   1.284       .  A
O16         Ni23   1.915   1_665  S
O16         C550   1.283       .  A
O17         Ni23   1.912   1_655  S
O17         C551   1.278       .  A
O18         Ni23   1.914   1_565  S
O18         C552   1.279       .  A
O19         Ni24   1.928   1_565  S
O19          C28   1.284       .  A
O20         Ni24   1.927   1_655  S
O20          C27   1.282       .  A
O21         Ni24   1.948   1_665  S
O21          C26   1.286       .  A
O22         Ni24   1.942       .  S
O22          C25   1.285       .  A
Ni23       Ni548   2.384   1_545  S
Ni24       Ni547   2.384       .  S
C25         O539   1.283       .  A
C25         C428   1.503       .  S
C26         O540   1.281       .  A
C26         C456   1.498       .  S
C27         O541   1.280       .  A
C27         C417   1.475       .  S
C28         O542   1.280       .  A
C28         C442   1.481       .  S
O29        Ni559   1.922       .  S
O29          C50   1.268       .  A
O30         Ni53   1.913       .  S
O30          C39   1.266       .  A
O31         Ni35   1.924       .  S
O31         Ni53   1.926       .  S
O31        Ni571   1.927   1_554  S
O31          H54   0.994       .  S
C32          O49   1.266       .  A
C32          O41   1.275       .  A
C32         C358   1.472       .  S
O33         Ni52   1.938       .  S
O33          C39   1.271       .  A
O34         Ni52   1.905       .  S
O34         C560   1.268   1_554  A
Ni35         O38   1.921       .  S
Ni35         O40   1.906       .  S
Ni35        O553   1.915   1_554  S
C36          O46   1.282       .  A
C36         O558   1.269       .  A
C36         C487   1.497       .  S
O37         Ni53   1.887       .  S
O37          C43   1.259       .  A
O38          C43   1.268       .  A
C39         C375   1.480       .  S
O40          C42   1.271       .  A
O41        Ni576   1.928       .  S
C42          O48   1.283       .  A
C42         C431   1.495       .  S
C43         C400   1.461       .  S
H44          O45   0.960       .  S
O45         Ni53   1.897       .  S
O45         Ni52   1.913       .  S
O45        Ni571   1.920   1_554  S
O46         Ni47   1.970       .  S
Ni47         O51   1.925       .  S
Ni47         O49   1.905       .  S
Ni47        O555   1.912       .  S
Ni47        O569   1.925       .  S
O48         Ni53   1.960       .  S
C50          O51   1.271       .  A
C50         C389   1.485       .  S
Ni52        O565   1.926   1_554  S
O55         Ni61   1.927       .  S
O55          C76   1.272       .  A
O56         Ni79   1.913       .  S
O56          C65   1.271       .  A
O57         Ni61   1.901       .  S
O57         Ni73   1.919       .  S
O57        Ni603   1.904   1_554  S
O57          H80   0.964       .  S
C58          O75   1.279       .  A
C58          O67   1.274       .  A
C58         C333   1.485       .  S
O59        Ni602   1.917       .  S
O59          C65   1.270       .  A
O60         Ni78   1.923       .  S
O60          C62   1.272       .  A
Ni61         O66   1.911       .  S
Ni61        O588   1.926   1_554  S
C62          O72   1.267       .  A
C62         C414   1.479       .  S
O63         Ni79   1.927       .  S
O63          C69   1.277       .  A
O64        Ni585   1.931       .  S
O64          C69   1.275       .  A
C65         C344   1.477       .  S
O66         C592   1.272   1_554  A
O67         Ni78   1.923       .  S
C68          O74   1.274       .  A
C68         O590   1.273       .  A
C68         C470   1.495       .  S
C69         C316   1.488       .  S
H70          O71   0.966       .  S
O71         Ni73   1.892       .  S
O71         Ni78   1.904       .  S
O71        Ni603   1.916   1_554  S
O72         Ni73   1.921       .  S
Ni73         O77   1.889       .  S
Ni73         O75   1.931       .  S
O74         Ni79   1.936       .  S
C76          O77   1.262       .  A
C76         C305   1.457       .  S
Ni78        O583   1.917   1_554  S
Ni79        O581   1.912       .  S
Ni79        O595   1.915       .  S
O81         Ni87   1.921       .  S
O81         C626   1.269       .  A
O82        Ni105   1.945       .  S
O82         C615   1.280       .  A
O83         Ni87   1.902       .  S
O83        Ni105   1.930       .  S
O83        Ni623   1.920       .  S
O83         H630   0.964       .  S
C84         O101   1.280       .  A
C84          O93   1.273       .  A
C84         C288   1.478       .  S
O85        Ni104   1.908       .  S
O85          C91   1.264   1_554  A
O86        Ni104   1.897       .  S
O86          C88   1.266       .  A
Ni87         O90   1.907       .  S
Ni87         O92   1.898       .  S
C88          O98   1.277       .  A
C88         C263   1.484       .  S
O89        Ni105   1.932       .  S
O89          C95   1.277       .  A
O90          C95   1.273       .  A
C91         O606   1.278       .  A
C91         C512   1.492       .  S
O92          C94   1.268       .  A
O93        Ni104   1.904       .  S
C94         O100   1.285       .  A
C94         C274   1.495       .  S
C95         C246   1.494       .  S
H96          O97   0.965       .  S
O97         Ni99   1.913       .  S
O97        Ni104   1.902       .  S
O97        Ni629   1.915   1_554  S
O98         Ni99   1.948       .  S
Ni99        O103   1.932       .  S
Ni99        O101   1.929       .  S
Ni99        O607   1.918   1_554  S
O100       Ni105   1.963       .  S
C102        O103   1.276       .  A
C102        O605   1.269   1_554  A
C102        C459   1.495       .  S
Ni105       O621   1.914       .  S
H106        O607   0.964       .  S
O107       Ni113   1.929       .  S
O107        C128   1.270       .  A
O108       Ni131   1.911       .  S
O108        C117   1.268       .  A
O109       Ni113   1.910   1_556  S
O109       Ni125   1.917   1_556  S
O109       Ni655   1.906       .  S
O109        H132   0.965       .  S
C110        O127   1.272       .  A
C110        O119   1.275       .  A
C110        C221   1.488       .  S
O111       Ni654   1.933       .  S
O111        C117   1.274       .  A
O112       Ni130   1.908       .  S
O112        C114   1.272       .  A
Ni113       O118   1.905   1_554  S
Ni113       O640   1.933   1_554  S
C114        O124   1.273       .  A
C114        C445   1.497       .  S
O115       Ni131   1.918       .  S
O115        C121   1.274       .  A
O116       Ni637   1.930       .  S
O116        C121   1.274       .  A
C117        C235   1.479       .  S
O118        C644   1.268       .  A
O119       Ni130   1.929       .  S
C120        O126   1.275       .  A
C120        O642   1.268       .  A
C120        C501   1.478       .  S
C121        C207   1.483       .  S
H122        O123   0.964       .  S
O123       Ni125   1.909       .  S
O123       Ni130   1.906       .  S
O123       Ni655   1.925   1_554  S
O124       Ni125   1.936       .  S
Ni125       O129   1.888       .  S
Ni125       O127   1.920       .  S
O126       Ni131   1.935       .  S
C128        O129   1.261       .  A
C128        C193   1.455       .  S
Ni130       O635   1.929   1_554  S
Ni131       O633   1.910       .  S
Ni131       O647   1.922       .  S
O133       Ni141   1.907   1_455  S
O133        C143   1.282       .  A
O134       Ni141   1.910       .  S
O134        C144   1.280       .  A
O135       Ni141   1.910       .  S
O135        C145   1.278       .  A
O136       Ni141   1.915   1_455  S
O136        C146   1.278       .  A
O137       Ni142   1.943   1_455  S
O137        C146   1.288       .  A
O138       Ni142   1.936       .  S
O138        C145   1.288       .  A
O139       Ni142   1.898       .  S
O139        C144   1.275       .  A
O140       Ni142   1.904   1_455  S
O140        C143   1.276       .  A
Ni141      Ni142   2.390       .  S
C143        C403   1.465       .  S
C144        C347   1.450       .  S
C145        C330   1.492       .  S
C146        C386   1.489       .  S
O147       Ni155   1.940   1_455  S
O147        C157   1.285       .  A
O148       Ni155   1.935       .  S
O148        C158   1.283       .  A
O149       Ni155   1.921       .  S
O149        C159   1.282       .  A
O150       Ni155   1.929   1_455  S
O150        C160   1.283       .  A
O151       Ni156   1.914       .  S
O151        C160   1.280       .  A
O152       Ni156   1.920   1_655  S
O152        C159   1.281       .  A
O153       Ni156   1.921   1_655  S
O153        C158   1.284       .  A
O154       Ni156   1.911       .  S
O154        C157   1.281       .  A
Ni155      Ni156   2.386   1_655  S
C157        C218   1.490       .  S
C158        C277   1.494       .  S
C159        C291   1.479       .  S
C160        C232   1.477       .  S
O161       Ni169   1.913       .  S
O161        C171   1.279       .  A
O162       Ni169   1.911       .  S
O162        C172   1.282       .  A
O163       Ni169   1.910       .  S
O163        C173   1.281       .  A
O164       Ni169   1.899       .  S
O164        C174   1.280       .  A
O165       Ni170   1.921       .  S
O165        C174   1.281       .  A
O166       Ni170   1.920       .  S
O166        C173   1.282       .  A
O167       Ni170   1.934       .  S
O167        C172   1.283       .  A
O168       Ni170   1.932       .  S
O168        C171   1.286       .  A
Ni169      Ni170   2.387       .  S
C171        C204   1.486       .  S
C172        C260   1.485       .  S
C173        C249   1.480       .  S
C174        C190   1.475       .  S
O175       Ni183   1.918       .  S
O175        C185   1.282       .  A
O176       Ni183   1.919       .  S
O176        C186   1.279       .  A
O177       Ni183   1.934       .  S
O177        C187   1.288       .  A
O178       Ni183   1.936       .  S
O178        C188   1.283       .  A
O179       Ni184   1.920       .  S
O179        C188   1.285       .  A
O180       Ni184   1.920       .  S
O180        C187   1.280       .  A
O181       Ni184   1.901       .  S
O181        C186   1.280       .  A
O182       Ni184   1.905       .  S
O182        C185   1.278       .  A
Ni183      Ni184   2.387       .  S
C185        C361   1.468       .  S
C186        C302   1.468       .  S
C187        C319   1.497       .  S
C188        C372   1.497       .  S
C189        C190   1.405       .  A
C189        C194   1.392       .  A
C189        H196   1.084       .  S
C190        C191   1.414       .  A
C191        C192   1.396       .  A
C191        N198   1.427       .  S
C192        C193   1.396       .  A
C192        H197   1.085       .  S
C193        C194   1.406       .  A
C194        N195   1.429       .  S
N195        O199   1.260       .  A
N195        O200   1.261       .  A
N198        O202   1.262       .  A
N198        O201   1.262       .  A
C203        C204   1.402       .  A
C203        C208   1.401       .  A
C203        H210   1.084       .  S
C204        C205   1.416       .  A
C205        C206   1.402       .  A
C205        N212   1.430       .  S
C206        C207   1.402       .  A
C206        H211   1.082       .  S
C207        C208   1.412       .  A
C208        N209   1.427       .  S
N209        O213   1.262       .  A
N209        O214   1.262       .  A
N212        O216   1.262       .  A
N212        O215   1.262       .  A
C217        C218   1.404       .  A
C217        C222   1.401       .  A
C217        H224   1.084       .  S
C218        C219   1.414       .  A
C219        C220   1.404       .  A
C219        N226   1.427       .  S
C220        C221   1.404       .  A
C220        H225   1.084       .  S
C221        C222   1.414       .  A
C222        N223   1.427       .  S
N223        O227   1.260       .  A
N223        O228   1.261       .  A
N226        O230   1.262       .  A
N226        O229   1.262       .  A
C231        C232   1.402       .  A
C231        C236   1.403       .  A
C231        H238   1.084       .  S
C232        C233   1.410       .  A
C233        C234   1.399       .  A
C233        N240   1.427       .  S
C234        C235   1.402       .  A
C234        H239   1.084       .  S
C235        C236   1.412       .  A
C236        N237   1.426       .  S
N237        O241   1.261       .  A
N237        O242   1.262       .  A
N240        O244   1.262       .  A
N240        O243   1.262       .  A
C245        C246   1.411       .  A
C245        C250   1.394       .  A
C245        H252   1.083       .  S
C246        C247   1.414       .  A
C247        C248   1.402       .  A
C247        N254   1.425       .  S
C248        C249   1.404       .  A
C248        H253   1.084       .  S
C249        C250   1.408       .  A
C250        N251   1.429       .  S
N251        O255   1.262       .  A
N251        O256   1.262       .  A
N254        O258   1.261       .  A
N254        O257   1.262       .  A
C259        C260   1.402       .  A
C259        C264   1.395       .  A
C259        H266   1.085       .  S
C260        C261   1.414       .  A
C261        C262   1.409       .  A
C261        N268   1.427       .  S
C262        C263   1.405       .  A
C262        H267   1.084       .  S
C263        C264   1.413       .  A
C264        N265   1.429       .  S
N265        O269   1.262       .  A
N265        O270   1.262       .  A
N268        O272   1.262       .  A
N268        O271   1.262       .  A
C273        C274   1.405       .  A
C273        C278   1.409       .  A
C273        H280   1.084       .  S
C274        C275   1.419       .  A
C275        C276   1.400       .  A
C275        N282   1.430       .  S
C276        C277   1.403       .  A
C276        H281   1.084       .  S
C277        C278   1.415       .  A
C278        N279   1.427       .  S
N279        O283   1.262       .  A
N279        O284   1.262       .  A
N282        O286   1.262       .  A
N282        O285   1.262       .  A
C287        C288   1.404       .  A
C287        C292   1.394       .  A
C287        H294   1.084       .  S
C288        C289   1.406       .  A
C289        C290   1.407       .  A
C289        N296   1.429       .  S
C290        C291   1.410       .  A
C290        H295   1.084       .  S
C291        C292   1.408       .  A
C292        N293   1.428       .  S
N293        O297   1.262       .  A
N293        O298   1.262       .  A
N296        O300   1.262       .  A
N296        O299   1.260       .  A
C301        C302   1.401       .  A
C301        C306   1.392       .  A
C301        H308   1.085       .  S
C302        C303   1.412       .  A
C303        C304   1.397       .  A
C303        N310   1.425       .  S
C304        C305   1.396       .  A
C304        H309   1.085       .  S
C305        C306   1.405       .  A
C306        N307   1.428       .  S
N307        O311   1.262       .  A
N307        O312   1.261       .  A
N310        O314   1.262       .  A
N310        O313   1.261       .  A
C315        C316   1.403       .  A
C315        C320   1.406       .  A
C315        H322   1.084       .  S
C316        C317   1.413       .  A
C317        C318   1.401       .  A
C317        N324   1.428       .  S
C318        C319   1.405       .  A
C318        H323   1.084       .  S
C319        C320   1.420       .  A
C320        N321   1.429       .  S
N321        O325   1.262       .  A
N321        O326   1.262       .  A
N324        O328   1.262       .  A
N324        O327   1.262       .  A
C329        C330   1.404       .  A
C329        C334   1.403       .  A
C329        H336   1.084       .  S
C330        C331   1.420       .  A
C331        C332   1.400       .  A
C331        N338   1.429       .  S
C332        C333   1.400       .  A
C332        H337   1.084       .  S
C333        C334   1.414       .  A
C334        N335   1.428       .  S
N335        O339   1.262       .  A
N335        O340   1.262       .  A
N338        O342   1.262       .  A
N338        O341   1.262       .  A
C343        C344   1.409       .  A
C343        C348   1.403       .  A
C343        H350   1.084       .  S
C344        C345   1.418       .  A
C345        C346   1.389       .  A
C345        N352   1.429       .  S
C346        C347   1.390       .  A
C346        H351   1.085       .  S
C347        C348   1.402       .  A
C348        N349   1.429       .  S
N349        O353   1.261       .  A
N349        O354   1.262       .  A
N352        O356   1.262       .  A
N352        O355   1.262       .  A
C357        C358   1.400       .  A
C357        C362   1.390       .  A
C357        H364   1.085       .  S
C358        C359   1.414       .  A
C359        C360   1.402       .  A
C359        N366   1.428       .  S
C360        C361   1.402       .  A
C360        H365   1.084       .  S
C361        C362   1.410       .  A
C362        N363   1.429       .  S
N363        O367   1.262       .  A
N363        O368   1.262       .  A
N366        O370   1.262       .  A
N366        O369   1.262       .  A
C371        C372   1.405       .  A
C371        C376   1.398       .  A
C371        H378   1.084       .  S
C372        C373   1.420       .  A
C373        C374   1.409       .  A
C373        N380   1.427       .  S
C374        C375   1.401       .  A
C374        H379   1.084       .  S
C375        C376   1.409       .  A
C376        N377   1.427       .  S
N377        O381   1.262       .  A
N377        O382   1.260       .  A
N380        O384   1.260       .  A
N380        O383   1.261       .  A
C385        C386   1.401       .  A
C385        C390   1.403       .  A
C385        H392   1.084       .  S
C386        C387   1.418       .  A
C387        C388   1.407       .  A
C387        N394   1.428       .  S
C388        C389   1.401       .  A
C388        H393   1.084       .  S
C389        C390   1.414       .  A
C390        N391   1.428       .  S
N391        O395   1.262       .  A
N391        O396   1.262       .  A
N394        O398   1.262       .  A
N394        O397   1.262       .  A
C399        C400   1.399       .  A
C399        C404   1.394       .  A
C399        H406   1.084       .  S
C400        C401   1.408       .  A
C401        C402   1.393       .  A
C401        N408   1.428       .  S
C402        C403   1.401       .  A
C402        H407   1.084       .  S
C403        C404   1.413       .  A
C404        N405   1.429       .  S
N405        O409   1.262       .  A
N405        O410   1.262       .  A
N408        O412   1.262       .  A
N408        O411   1.262       .  A
C413        C414   1.401       .  A
C413        C418   1.400       .  A
C413        H420   1.084       .  S
C414        C415   1.414       .  A
C415        C416   1.402       .  A
C415        N946   1.429       .  S
C416        C417   1.401       .  A
C416        H421   1.084       .  S
C417        C418   1.411       .  A
C418        N419   1.428       .  S
N419        O423   1.262   1_655  A
N419        O424   1.262       .  A
N422        C939   1.428       .  S
N422        O950   1.262       .  A
N422        O425   1.262       .  A
O426        N946   1.262       .  A
C427        C428   1.408       .  A
C427        C432   1.399   1_554  A
C427        H958   1.083   1_554  S
C428        C429   1.419       .  A
C429        C430   1.410       .  A
C429        N436   1.427       .  S
C430        C431   1.406       .  A
C430        H435   1.084       .  S
C431        C432   1.415   1_554  A
C432        N957   1.430       .  S
N433        C956   1.429       .  S
N433        O437   1.262       .  A
N433        O438   1.262       .  A
H434        C951   1.083       .  S
N436        O440   1.262       .  A
N436        O439   1.262       .  A
C441        C442   1.400       .  A
C441        C446   1.406       .  A
C441        H448   1.084       .  S
C442        C443   1.411       .  A
C443        C444   1.398       .  A
C443        N450   1.429   1_554  S
C444        C445   1.407       .  A
C444        H449   1.084   1_554  S
C445        C446   1.421       .  A
C446        N447   1.428       .  S
N447        O451   1.262       .  A
N447        O452   1.261       .  A
N450        O454   1.262   1_455  A
N450        O977   1.262       .  A
O453        N974   1.262       .  A
C455        C456   1.404       .  A
C455        C460   1.396   1_554  A
C455        H986   1.084   1_554  S
C456        C457   1.418       .  A
C457        C458   1.411       .  A
C457        N464   1.427       .  S
C458        C459   1.405       .  A
C458        H463   1.082       .  S
C459        C460   1.417   1_554  A
C460        N985   1.430       .  S
N461        C984   1.430       .  S
N461        O465   1.262       .  A
N461        O466   1.262       .  A
H462        C979   1.084       .  S
N464        O468   1.262       .  A
N464        O467   1.262       .  A
C469        C470   1.410       .  A
C469        C474   1.401       .  A
C469        H476   1.084       .  S
C470        C471   1.420       .  A
C471        C996   1.401       .  A
C471       N1002   1.427       .  S
C472        C995   1.402       .  A
C472        C997   1.396       .  A
C472        H477   1.084       .  S
C473        C474   1.410       .  A
C473        C996   1.396       .  A
C474        N475   1.430       .  S
N475        O479   1.262       .  A
N475       O1004   1.262       .  A
N478        C995   1.427       .  S
N478        O482   1.262       .  A
N478       O1005   1.262       .  A
O480        N999   1.262       .  A
O481       N1002   1.262       .  A
C483        C488   1.397       .  A
C483       C1008   1.402   1_554  A
C483        H490   1.084       .  S
C484        C485   1.417       .  A
C484       C1007   1.401       .  A
C485        C486   1.412       .  A
C485        N492   1.428       .  S
C486        C487   1.407       .  A
C486        H491   1.084       .  S
C487       C1012   1.415       .  A
C488       C1011   1.413   1_554  A
C488        N489   1.425       .  S
N489        O493   1.261       .  A
N489        O494   1.262       .  A
N492        O496   1.262       .  A
N492        O495   1.262       .  A
C497        C502   1.391       .  A
C497       C1022   1.405   1_554  A
C497        H504   1.084       .  S
C498        C537   1.487       .  S
C498        C499   1.415       .  A
C498       C1021   1.405       .  A
C499        C500   1.404       .  A
C499        N506   1.427       .  S
C500        C501   1.403       .  A
C500        H505   1.084       .  S
C501       C1026   1.410       .  A
C502       C1025   1.408   1_554  A
C502        N503   1.427       .  S
N503        O507   1.261       .  A
N503        O508   1.262       .  A
N506        O510   1.262       .  A
N506        O509   1.262       .  A
C511        C516   1.408       .  A
C511       C1036   1.399       .  A
C511        H518   1.077       .  S
C512        C513   1.420   1_556  A
C512       C1035   1.402       .  A
C513        C514   1.397       .  A
C513        N520   1.431       .  S
C514        C515   1.402   1_554  A
C514        H519   1.084       .  S
C515       C1040   1.419       .  A
C516       C1039   1.419       .  A
C516        N517   1.427       .  S
N517        O521   1.262       .  A
N517       O1046   1.262       .  A
N520        O524   1.262       .  A
N520       O1047   1.262       .  A
O522       N1041   1.262       .  A
O523       N1044   1.262       .  A
O525       Ni533   1.934       .  S
O526       Ni533   1.930       .  S
O526        C536   1.283       .  A
O527       Ni533   1.938       .  S
O528       Ni533   1.932       .  S
O528        C538   1.285       .  A
O529       Ni534   1.902       .  S
O530       Ni534   1.900       .  S
O530        C537   1.280       .  A
O531       Ni534   1.918       .  S
O532       Ni534   1.921       .  S
O532        C535   1.285       .  A
C535       C1039   1.496       .  S
C536       C1008   1.497       .  S
C538        C997   1.473       .  S
O539       Ni547   1.915       .  S
O540       Ni547   1.905   1_665  S
O541       Ni547   1.913   1_655  S
O542       Ni547   1.916   1_565  S
O543       Ni548   1.930       .  S
O543        C552   1.284       .  A
O544       Ni548   1.930   1_645  S
O544        C551   1.283       .  A
O545       Ni548   1.943   1_655  S
O545        C550   1.285       .  A
O546       Ni548   1.942   1_545  S
O546        C549   1.285       .  A
C549        C952   1.504       .  S
C550        C980   1.498       .  S
C551        C941   1.472       .  S
C552        C966   1.478       .  S
O553        C574   1.267       .  A
O554       Ni577   1.915       .  S
O554        C563   1.267       .  A
O555       Ni559   1.923       .  S
O555       Ni577   1.927       .  S
O555        H578   0.980       .  S
C556        O573   1.270       .  A
C556        O565   1.276       .  A
C556        C882   1.476       .  S
O557       Ni576   1.935       .  S
O557        C563   1.271       .  A
O558       Ni576   1.907       .  S
Ni559       O562   1.916       .  S
Ni559       O564   1.913       .  S
C560        O570   1.281       .  A
C560       C1011   1.495       .  S
O561       Ni577   1.889       .  S
O561        C567   1.262       .  A
O562        C567   1.270       .  A
C563        C899   1.481       .  S
O564        C566   1.271       .  A
C566        O572   1.278       .  A
C566        C955   1.491       .  S
C567        C924   1.460       .  S
H568        O569   0.962       .  S
O569       Ni577   1.905       .  S
O569       Ni576   1.916       .  S
O570       Ni571   1.967       .  S
Ni571       O575   1.923       .  S
Ni571       O573   1.912       .  S
O572       Ni577   1.951       .  S
C574        O575   1.272       .  A
C574        C913   1.484       .  S
O579       Ni585   1.930       .  S
O579        C600   1.275       .  A
O580       Ni603   1.905       .  S
O580        C589   1.270       .  A
O581       Ni585   1.904       .  S
O581       Ni597   1.926       .  S
O581        H604   0.965       .  S
C582        O599   1.279       .  A
C582        O591   1.274       .  A
C582        C857   1.483       .  S
O583        C589   1.271       .  A
O584       Ni602   1.918       .  S
O584        C586   1.273       .  A
Ni585       O590   1.913       .  S
C586        O596   1.268       .  A
C586        C938   1.495       .  S
O587       Ni603   1.929       .  S
O587        C593   1.279       .  A
O588        C593   1.275       .  A
C589        C868   1.470       .  S
O591       Ni602   1.920       .  S
C592        O598   1.274       .  A
C592        C994   1.496       .  S
C593        C840   1.487       .  S
H594        O595   0.966       .  S
O595       Ni597   1.894       .  S
O595       Ni602   1.899       .  S
O596       Ni597   1.924       .  S
Ni597       O601   1.893       .  S
Ni597       O599   1.930       .  S
O598       Ni603   1.934       .  S
C600        O601   1.262       .  A
C600        C829   1.469       .  S
O605       Ni611   1.920       .  S
O606       Ni629   1.939       .  S
O607       Ni611   1.898       .  S
O607       Ni629   1.920       .  S
C608        O625   1.278       .  A
C608        O617   1.273       .  A
C608        C812   1.472       .  S
O609       Ni628   1.905       .  S
O609        C615   1.264       .  A
O610       Ni628   1.901       .  S
O610        C612   1.267       .  A
Ni611       O614   1.912       .  S
Ni611       O616   1.902       .  S
C612        O622   1.278       .  A
C612        C787   1.487       .  S
O613       Ni629   1.927       .  S
O613        C619   1.277       .  A
O614        C619   1.275       .  A
C615       C1036   1.493       .  S
O616        C618   1.268       .  A
O617       Ni628   1.901       .  S
C618        O624   1.284       .  A
C618        C798   1.499       .  S
C619        C770   1.482       .  S
H620        O621   0.965       .  S
O621       Ni623   1.912       .  S
O621       Ni628   1.902       .  S
O622       Ni623   1.947       .  S
Ni623       O627   1.933       .  S
Ni623       O625   1.927       .  S
O624       Ni629   1.965       .  S
C626        O627   1.275       .  A
C626        C983   1.496       .  S
O631       Ni637   1.922       .  S
O631        C652   1.269       .  A
O632       Ni655   1.908       .  S
O632        C641   1.267       .  A
O633       Ni637   1.913       .  S
O633       Ni649   1.921       .  S
O633        H656   0.965       .  S
C634        O651   1.274       .  A
C634        O643   1.276       .  A
C634        C745   1.490       .  S
O635        C641   1.273       .  A
O636       Ni654   1.909       .  S
O636        C638   1.272       .  A
Ni637       O642   1.905       .  S
C638        O648   1.271       .  A
C638        C969   1.495       .  S
O639       Ni655   1.924       .  S
O639        C645   1.278       .  A
O640        C645   1.276       .  A
C641        C759   1.473       .  S
O643       Ni654   1.931       .  S
C644        O650   1.273       .  A
C644       C1025   1.478       .  S
C645        C731   1.491       .  S
H646        O647   0.964       .  S
O647       Ni649   1.908       .  S
O647       Ni654   1.906       .  S
O648       Ni649   1.930       .  S
Ni649       O653   1.888       .  S
Ni649       O651   1.924       .  S
O650       Ni655   1.933       .  S
C652        O653   1.261       .  A
C652        C717   1.453       .  S
O657       Ni665   1.904   1_455  S
O657        C667   1.282       .  A
O658       Ni665   1.907       .  S
O658        C668   1.280       .  A
O659       Ni665   1.912       .  S
O659        C669   1.278       .  A
O660       Ni665   1.917   1_455  S
O660        C670   1.279       .  A
O661       Ni666   1.934   1_455  S
O661        C670   1.287       .  A
O662       Ni666   1.930       .  S
O662        C669   1.286       .  A
O663       Ni666   1.895       .  S
O663        C668   1.274       .  A
O664       Ni666   1.903   1_455  S
O664        C667   1.276       .  A
Ni665      Ni666   2.391       .  S
C667        C927   1.465       .  S
C668        C871   1.447       .  S
C669        C854   1.487       .  S
C670        C910   1.485       .  S
O671       Ni679   1.948   1_455  S
O671        C681   1.287       .  A
O672       Ni679   1.944       .  S
O672        C682   1.285       .  A
O673       Ni679   1.917       .  S
O673        C683   1.281       .  A
O674       Ni679   1.924   1_455  S
O674        C684   1.281       .  A
O675       Ni680   1.910       .  S
O675        C684   1.280       .  A
O676       Ni680   1.918   1_655  S
O676        C683   1.280       .  A
O677       Ni680   1.922   1_655  S
O677        C682   1.284       .  A
O678       Ni680   1.911       .  S
O678        C681   1.281       .  A
Ni679      Ni680   2.386   1_655  S
C681        C742   1.497       .  S
C682        C801   1.501       .  S
C683        C815   1.475       .  S
C684        C756   1.473       .  S
O685       Ni693   1.917       .  S
O685        C695   1.279       .  A
O686       Ni693   1.916       .  S
O686        C696   1.283       .  A
O687       Ni693   1.913       .  S
O687        C697   1.280       .  A
O688       Ni693   1.900       .  S
O688        C698   1.280       .  A
O689       Ni694   1.918       .  S
O689        C698   1.280       .  A
O690       Ni694   1.918       .  S
O690        C697   1.281       .  A
O691       Ni694   1.937       .  S
O691        C696   1.283       .  A
O692       Ni694   1.938       .  S
O692        C695   1.287       .  A
Ni693      Ni694   2.387       .  S
C695        C728   1.489       .  S
C696        C784   1.491       .  S
C697        C773   1.472       .  S
C698        C714   1.472       .  S
O699       Ni707   1.917       .  S
O699        C709   1.281       .  A
O700       Ni707   1.914       .  S
O700        C710   1.278       .  A
O701       Ni707   1.936       .  S
O701        C711   1.288       .  A
O702       Ni707   1.937       .  S
O702        C712   1.283       .  A
O703       Ni708   1.918       .  S
O703        C712   1.285       .  A
O704       Ni708   1.917       .  S
O704        C711   1.279       .  A
O705       Ni708   1.904       .  S
O705        C710   1.279       .  A
O706       Ni708   1.909       .  S
O706        C709   1.279       .  A
Ni707      Ni708   2.388       .  S
C709        C885   1.469       .  S
C710        C826   1.460       .  S
C711        C843   1.495       .  S
C712        C896   1.496       .  S
C713        C714   1.404       .  A
C713        C718   1.392       .  A
C713        H720   1.084       .  S
C714        C715   1.414       .  A
C715        C716   1.396       .  A
C715        N722   1.428       .  S
C716        C717   1.396       .  A
C716        H721   1.085       .  S
C717        C718   1.406       .  A
C718        N719   1.429       .  S
N719        O723   1.260       .  A
N719        O724   1.261       .  A
N722        O726   1.262       .  A
N722        O725   1.262       .  A
C727        C728   1.402       .  A
C727        C732   1.403       .  A
C727        H734   1.084       .  S
C728        C729   1.415       .  A
C729        C730   1.404       .  A
C729        N736   1.430       .  S
C730        C731   1.403       .  A
C730        H735   1.081       .  S
C731        C732   1.415       .  A
C732        N733   1.427       .  S
N733        O737   1.262       .  A
N733        O738   1.262       .  A
N736        O740   1.262       .  A
N736        O739   1.262       .  A
C741        C742   1.407       .  A
C741        C746   1.402       .  A
C741        H748   1.084       .  S
C742        C743   1.416       .  A
C743        C744   1.407       .  A
C743        N750   1.427       .  S
C744        C745   1.404       .  A
C744        H749   1.084       .  S
C745        C746   1.413       .  A
C746        N747   1.428       .  S
N747        O751   1.261       .  A
N747        O752   1.261       .  A
N750        O754   1.262       .  A
N750        O753   1.262       .  A
C755        C756   1.401       .  A
C755        C760   1.399       .  A
C755        H762   1.084       .  S
C756        C757   1.410       .  A
C757        C758   1.399       .  A
C757        N764   1.428       .  S
C758        C759   1.402       .  A
C758        H763   1.084       .  S
C759        C760   1.410       .  A
C760        N761   1.426       .  S
N761        O765   1.261       .  A
N761        O766   1.262       .  A
N764        O768   1.262       .  A
N764        O767   1.262       .  A
C769        C770   1.407       .  A
C769        C774   1.394       .  A
C769        H776   1.084       .  S
C770        C771   1.413       .  A
C771        C772   1.402       .  A
C771        N778   1.428       .  S
C772        C773   1.404       .  A
C772        H777   1.084       .  S
C773        C774   1.406       .  A
C774        N775   1.428       .  S
N775        O779   1.262       .  A
N775        O780   1.262       .  A
N778        O782   1.261       .  A
N778        O781   1.262       .  A
C783        C784   1.403       .  A
C783        C788   1.397       .  A
C783        H790   1.084       .  S
C784        C785   1.416       .  A
C785        C786   1.409       .  A
C785        N792   1.427       .  S
C786        C787   1.405       .  A
C786        H791   1.084       .  S
C787        C788   1.413       .  A
C788        N789   1.429       .  S
N789        O793   1.262       .  A
N789        O794   1.262       .  A
N792        O796   1.262       .  A
N792        O795   1.262       .  A
C797        C798   1.406       .  A
C797        C802   1.413       .  A
C797        H804   1.084       .  S
C798        C799   1.418       .  A
C799        C800   1.401       .  A
C799        N806   1.430       .  S
C800        C801   1.404       .  A
C800        H805   1.084       .  S
C801        C802   1.417       .  A
C802        N803   1.427       .  S
N803        O807   1.262       .  A
N803        O808   1.262       .  A
N806        O810   1.262       .  A
N806        O809   1.262       .  A
C811        C812   1.402       .  A
C811        C816   1.392       .  A
C811        H818   1.084       .  S
C812        C813   1.406       .  A
C813        C814   1.406       .  A
C813        N820   1.429       .  S
C814        C815   1.410       .  A
C814        H819   1.084       .  S
C815        C816   1.407       .  A
C816        N817   1.428       .  S
N817        O821   1.262       .  A
N817        O822   1.262       .  A
N820        O824   1.262       .  A
N820        O823   1.260       .  A
C825        C826   1.397       .  A
C825        C830   1.397       .  A
C825        H832   1.085       .  S
C826        C827   1.405       .  A
C827        C828   1.393       .  A
C827        N834   1.424       .  S
C828        C829   1.399       .  A
C828        H833   1.084       .  S
C829        C830   1.412       .  A
C830        N831   1.425       .  S
N831        O835   1.262       .  A
N831        O836   1.261       .  A
N834        O838   1.262       .  A
N834        O837   1.262       .  A
C839        C840   1.402       .  A
C839        C844   1.405       .  A
C839        H846   1.084       .  S
C840        C841   1.414       .  A
C841        C842   1.401       .  A
C841        N848   1.428       .  S
C842        C843   1.404       .  A
C842        H847   1.084       .  S
C843        C844   1.420       .  A
C844        N845   1.428       .  S
N845        O849   1.262       .  A
N845        O850   1.262       .  A
N848        O852   1.262       .  A
N848        O851   1.262       .  A
C853        C854   1.404       .  A
C853        C858   1.401       .  A
C853        H860   1.084       .  S
C854        C855   1.417       .  A
C855        C856   1.399       .  A
C855        N862   1.429       .  S
C856        C857   1.399       .  A
C856        H861   1.081       .  S
C857        C858   1.413       .  A
C858        N859   1.428       .  S
N859        O863   1.262       .  A
N859        O864   1.262       .  A
N862        O866   1.262       .  A
N862        O865   1.262       .  A
C867        C868   1.407       .  A
C867        C872   1.399       .  A
C867        H874   1.084       .  S
C868        C869   1.416       .  A
C869        C870   1.389       .  A
C869        N876   1.429       .  S
C870        C871   1.391       .  A
C870        H875   1.085       .  S
C871        C872   1.401       .  A
C872        N873   1.428       .  S
N873        O877   1.261       .  A
N873        O878   1.262       .  A
N876        O880   1.262       .  A
N876        O879   1.262       .  A
C881        C882   1.402       .  A
C881        C886   1.390       .  A
C881        H888   1.085       .  S
C882        C883   1.414       .  A
C883        C884   1.404       .  A
C883        N890   1.428       .  S
C884        C885   1.403       .  A
C884        H889   1.084       .  S
C885        C886   1.408       .  A
C886        N887   1.429       .  S
N887        O891   1.262       .  A
N887        O892   1.262       .  A
N890        O894   1.262       .  A
N890        O893   1.262       .  A
C895        C896   1.404       .  A
C895        C900   1.396       .  A
C895        H902   1.084       .  S
C896        C897   1.420       .  A
C897        C898   1.411       .  A
C897        N904   1.429       .  S
C898        C899   1.403       .  A
C898        H903   1.084       .  S
C899        C900   1.408       .  A
C900        N901   1.427       .  S
N901        O905   1.261       .  A
N901        O906   1.260       .  A
N904        O908   1.260       .  A
N904        O907   1.261       .  A
C909        C910   1.401       .  A
C909        C914   1.400       .  A
C909        H916   1.084       .  S
C910        C911   1.417       .  A
C911        C912   1.406       .  A
C911        N918   1.429       .  S
C912        C913   1.403       .  A
C912        H917   1.084       .  S
C913        C914   1.414       .  A
C914        N915   1.428       .  S
N915        O919   1.262       .  A
N915        O920   1.262       .  A
N918        O922   1.262       .  A
N918        O921   1.262       .  A
C923        C924   1.400       .  A
C923        C928   1.395       .  A
C923        H930   1.084       .  S
C924        C925   1.407       .  A
C925        C926   1.391       .  A
C925        N932   1.428       .  S
C926        C927   1.400       .  A
C926        H931   1.084       .  S
C927        C928   1.413       .  A
C928        N929   1.430       .  S
N929        O933   1.262       .  A
N929        O934   1.262       .  A
N932        O936   1.262       .  A
N932        O935   1.262       .  A
C937        C938   1.406       .  A
C937        C942   1.396       .  A
C937        H944   1.084       .  S
C938        C939   1.423       .  A
C939        C940   1.406       .  A
C940        C941   1.398       .  A
C940        H945   1.084       .  S
C941        C942   1.407       .  A
C942        N943   1.427       .  S
N943        O947   1.261   1_655  A
N943        O948   1.262   1_655  A
N946        O949   1.262   1_554  A
C951        C952   1.408       .  A
C951        C956   1.399       .  A
C952        C953   1.421       .  A
C953        C954   1.411       .  A
C953        N960   1.428       .  S
C954        C955   1.405       .  A
C954        H959   1.084       .  S
C955        C956   1.411       .  A
N957        O961   1.262       .  A
N957        O962   1.262       .  A
N960        O964   1.262       .  A
N960        O963   1.262       .  A
C965        C966   1.400       .  A
C965        C970   1.405       .  A
C965        H972   1.084       .  S
C966        C967   1.410       .  A
C967        C968   1.396       .  A
C967        N974   1.430       .  S
C968        C969   1.407       .  A
C968        H973   1.084       .  S
C969        C970   1.421       .  A
C970        N971   1.429       .  S
N971        O975   1.262       .  A
N971        O976   1.261       .  A
N974        O978   1.262   1_455  A
C979        C980   1.403       .  A
C979        C984   1.398       .  A
C980        C981   1.418       .  A
C981        C982   1.410       .  A
C981        N988   1.427       .  S
C982        C983   1.404       .  A
C982        H987   1.082       .  S
C983        C984   1.417       .  A
N985        O989   1.262       .  A
N985        O990   1.262       .  A
N988        O992   1.262       .  A
N988        O991   1.262       .  A
C993        C994   1.410   1_554  A
C993        C998   1.400       .  A
C993       H1000   1.084       .  S
C994        C995   1.420       .  A
C996       H1001   1.084       .  S
C997        C998   1.409   1_556  A
C998        N999   1.430       .  S
N999       O1003   1.261       .  A
N1002      O1006   1.262       .  A
C1007      C1012   1.399       .  A
C1007      H1014   1.084       .  S
C1008      C1009   1.417       .  A
C1009      C1010   1.413       .  A
C1009      N1016   1.428       .  S
C1010      C1011   1.408       .  A
C1010      H1015   1.084       .  S
C1012      N1013   1.424       .  S
N1013      O1017   1.261       .  A
N1013      O1018   1.262       .  A
N1016      O1020   1.262       .  A
N1016      O1019   1.262       .  A
C1021      C1026   1.393       .  A
C1021      H1028   1.084       .  S
C1022      C1023   1.415       .  A
C1023      C1024   1.407       .  A
C1023      N1030   1.427       .  S
C1024      C1025   1.405       .  A
C1024      H1029   1.084       .  S
C1026      N1027   1.427       .  S
N1027      O1031   1.261       .  A
N1027      O1032   1.262       .  A
N1030      O1034   1.262       .  A
N1030      O1033   1.262       .  A
C1035      C1040   1.409       .  A
C1035      H1042   1.083       .  S
C1036      C1037   1.419       .  A
C1037      C1038   1.398       .  A
C1037      N1044   1.430       .  S
C1038      C1039   1.403       .  A
C1038      H1043   1.084       .  S
C1040      N1041   1.427       .  S
N1041      O1045   1.262       .  A
N1044      O1048   1.262       .  A
