geometry optimzed in LAMMPS
_audit_creation_date              2020-11-30 
_audit_creation_method            'lammps2cif' 
_symmetry_space_group_name_H-M    'P1' 
_symmetry_Int_Tables_number       1 
_symmetry_cell_setting            triclinic 
loop_ 
_symmetry_equiv_pos_as_xyz 
  x,y,z 
_cell_length_a                    54.51967549 
_cell_length_b                    42.189890896088784 
_cell_length_c                    34.02211179654837 
_cell_angle_alpha                 90.1861936048676 
_cell_angle_beta                  90.05387643904913 
_cell_angle_gamma                 89.92277094643619 
loop_ 
_atom_site_label 
_atom_site_type_symbol 
_atom_site_fract_x 
_atom_site_fract_y 
_atom_site_fract_z 
_atom_site_charge 
C1          C  0.59629416  0.51405148  0.82367471     0.04000
C2          C  0.57302184  0.02582677  0.81315273    -0.12100
C3          C  0.55531056  0.03234228  0.84189153     0.01500
C4          C  0.56117523  0.02805819  0.88163578    -0.10700
C5          C  0.58419267  0.51645203  0.89294172     0.04000
C6          C  0.60169433  0.50928389  0.86388007    -0.10100
H7          H  0.56854137  0.03002724  0.78263041     0.09600
H8          H  0.54726426  0.03208426  0.90387514     0.07100
H9          H  0.61939638  0.49993619  0.87255335     0.07000
O10         O  0.66452953  0.49048272  0.66699299    -0.56900
C11         C  0.70476196  0.48719159  0.55699540     0.75700
O12         O  0.74019554  0.02686925  0.65951074    -0.58100
C13         C  0.67038092  0.49576081  0.70258622     0.75700
C14         C  0.72895435  0.42737052  0.65468182     0.78100
Cd15       Cd  0.70734466  0.48944979  0.64214074     1.37500
O16         O  0.68532197  0.48623730  0.57753654    -0.56900
O17         O  0.70656378  0.43129378  0.64607489    -0.55700
C18         C  0.72791369  0.05174371  0.65203607     0.78000
O19         O  0.74133155  0.45249415  0.65981257    -0.58100
O20         O  0.72457819  0.48979724  0.57599010    -0.56600
O21         O  0.69311592  0.49672692  0.71002916    -0.56600
O22         O  0.70616236  0.04764842  0.64006758    -0.55700
O23         O  0.33791673  0.02143928  0.66309722    -0.56900
C24         C  0.29951778  0.00855094  0.55641845     0.75700
O25         O  0.26395614  0.47130776  0.66120450    -0.58100
C26         C  0.33452013  0.01309391  0.69844557     0.75700
C27         C  0.27154531  0.07030660  0.65582071     0.78100
Cd28       Cd  0.29573922  0.00972662  0.64114897     1.37500
O29         O  0.31884679  0.00695153  0.57709006    -0.56900
O30         O  0.29392214  0.06765216  0.64668357    -0.55700
C31         C  0.27609345  0.44656934  0.65243595     0.78000
O32         O  0.25978911  0.04451354  0.65897849    -0.58100
O33         O  0.27963019  0.01118469  0.57519405    -0.56600
O34         O  0.31348210  0.00243827  0.70679713    -0.56600
O35         O  0.29757439  0.45114028  0.63957832    -0.55700
C36         C  0.40856526  0.03058824  0.81876883     0.04000
C37         C  0.40186934  0.02868344  0.85874812    -0.12100
C38         C  0.41977041  0.03019889  0.88830506     0.01500
C39         C  0.44439395  0.03395071  0.87770586    -0.10700
C40         C  0.45143007  0.03582187  0.83823181     0.04000
C41         C  0.43350915  0.03384888  0.80874235    -0.10100
H42         H  0.38275140  0.02628552  0.86682918     0.09600
H43         H  0.45833141  0.03481391  0.90044560     0.07100
H44         H  0.43903753  0.03436399  0.77818066     0.07000
O45         O  0.18442790  0.26017467  0.58732425    -0.56900
C46         C  0.16944511  0.26135957  0.70607270     0.75700
O47         O  0.24272465  0.22250539  0.66908714    -0.58100
C48         C  0.20302189  0.25552507  0.56575424     0.75700
C49         C  0.23099319  0.32168768  0.65756698     0.78100
Cd50       Cd  0.20858701  0.25927648  0.64973707     1.37500
O51         O  0.16510558  0.25626986  0.67001705    -0.56900
O52         O  0.20872864  0.31794043  0.64820805    -0.55700
C53         C  0.23039546  0.19736907  0.66378639     0.78000
O54         O  0.24301922  0.29650308  0.66421379    -0.58100
O55         O  0.19174151  0.26496275  0.71559447    -0.56600
O56         O  0.22333265  0.25297019  0.58337994    -0.56600
O57         O  0.20815421  0.20134433  0.65443815    -0.55700
C58         C  0.09405952  0.27232333  0.82601216     0.04000
C59         C  0.06892563  0.27400724  0.81589617    -0.12100
C60         C  0.05084917  0.27456009  0.84521959     0.01500
C61         C  0.05791906  0.27494544  0.88478114    -0.10700
C62         C  0.08267230  0.27334759  0.89544957     0.04000
C63         C  0.10052521  0.27076309  0.86609609    -0.10100
H64         H  0.06330371  0.27491865  0.78538907     0.09600
H65         H  0.04397705  0.27508875  0.90747610     0.07100
H66         H  0.11938446  0.26702129  0.87481620     0.07000
C67         C  0.90546496  0.24512537  0.82639401     0.04000
C68         C  0.92962783  0.25353699  0.81642477    -0.12100
C69         C  0.94719255  0.25828699  0.84601851     0.01500
C70         C  0.94060233  0.25369175  0.88539848    -0.10700
C71         C  0.91673879  0.24461898  0.89545306     0.02800
C72         C  0.89911232  0.24051748  0.86594799    -0.10100
H73         H  0.93456460  0.25707472  0.78591234     0.09600
H74         H  0.95426323  0.25652917  0.90834072     0.07100
H75         H  0.88052869  0.23395025  0.87370687     0.07000
O76         O  0.81848829  0.24105800  0.58274909    -0.56900
C77         C  0.83167905  0.24127964  0.70468788     0.75700
O78         O  0.75844505  0.27469086  0.66056325    -0.58100
C79         C  0.79966044  0.24209189  0.56086935     0.75700
C80         C  0.77230707  0.17659628  0.65521746     0.78100
Cd81       Cd  0.79383114  0.23891212  0.64512597     1.37500
O82         O  0.83627092  0.23160001  0.67017438    -0.56900
O83         O  0.79409610  0.18078807  0.64383990    -0.55700
C84         C  0.77028329  0.30007984  0.65430544     0.78000
O85         O  0.76031257  0.20152683  0.66344973    -0.58100
O86         O  0.80979977  0.24967360  0.71150626    -0.56600
O87         O  0.77919818  0.24140552  0.57821945    -0.56600
O88         O  0.79264133  0.29673785  0.64505477    -0.55700
C89         C  0.59168720  0.48824035  0.12779386     0.04000
C90         C  0.56690308  0.48194240  0.13682963    -0.12100
C91         C  0.54900043  0.48179575  0.10711734     0.01500
C92         C  0.55603559  0.48705496  0.06806960    -0.10700
C93         C  0.58048947  0.49309466  0.05848978     0.04000
C94         C  0.59816030  0.49420453  0.08831066    -0.10100
H95         H  0.56141835  0.47670185  0.16662533     0.09600
H96         H  0.54225204  0.48770042  0.04507970     0.07100
H97         H  0.61694750  0.49972941  0.08062254     0.07000
O98         O  0.66615355  0.48983853  0.27979001    -0.56900
C99         C  0.70420953  0.48433888  0.38576292     0.75700
O100        O  0.74247849  0.44886048  0.28108448    -0.58100
C101        C  0.67028449  0.48549402  0.24348382     0.75700
C102        C  0.73235272  0.04746543  0.28850526     0.78100
Cd103      Cd  0.70931550  0.48584881  0.30065146     1.37500
O104        O  0.68533766  0.48519711  0.36401874    -0.56900
O105        O  0.70966775  0.04400498  0.29489322    -0.55700
C106        C  0.73010907  0.42372597  0.28594032     0.78000
O107        O  0.74472989  0.02207767  0.28613973    -0.58100
O108        O  0.72454302  0.48412807  0.36796045    -0.56600
O109        O  0.69251399  0.48175566  0.23376069    -0.56600
O110        O  0.70810413  0.42750118  0.29670791    -0.55700
O111        O  0.33207141  0.01340702  0.27796264    -0.56900
C112        C  0.29414410  0.00459837  0.38584494     0.75700
O113        O  0.25380120  0.04205568  0.28799325    -0.58100
C114        C  0.32719814  0.00831416  0.24203151     0.75700
C115        C  0.26936704  0.44364816  0.28933759     0.78100
Cd116      Cd  0.28939600  0.00612263  0.30130874     1.37500
O117        O  0.31303827  0.00503902  0.36409752    -0.56900
O118        O  0.29105571  0.44802745  0.30145563    -0.55700
C119        C  0.26612528  0.06728780  0.29247337     0.78000
O120        O  0.25709546  0.46838967  0.28126712    -0.58100
O121        O  0.27376622  0.00456664  0.36818126    -0.56600
O122        O  0.30502313  0.00226690  0.23386473    -0.56600
O123        O  0.28872305  0.06374095  0.29953406    -0.55700
C124        C  0.40260044  0.00445420  0.12207510     0.04000
C125        C  0.39733955  0.01179783  0.08253973    -0.12100
C126        C  0.41625923  0.01276065  0.05465017     0.01500
C127        C  0.44026705  0.00561113  0.06612555    -0.10700
C128        C  0.44577493  0.99797628  0.10514223     0.04000
C129        C  0.42698129  0.99780233  0.13322109    -0.10100
H130        H  0.37877733  0.01761761  0.07372221     0.09600
H131        H  0.45481690  0.00586264  0.04439824     0.07100
H132        H  0.43122742  0.99196569  0.16346801     0.07000
O133        O  0.18369895  0.25435944  0.37510865    -0.56900
C134        C  0.16720496  0.25320893  0.25365134     0.75700
O135        O  0.23820415  0.29387115  0.29224283    -0.58100
C136        C  0.20319292  0.25411575  0.39552146     0.75700
C137        C  0.22701172  0.19507676  0.29874119     0.78100
Cd138      Cd  0.20547248  0.25671752  0.31122246     1.37500
O139        O  0.16204221  0.25993037  0.28908226    -0.56900
O140        O  0.20568203  0.19919525  0.31250659    -0.55700
C141        C  0.22549602  0.31884690  0.29658179     0.78000
O142        O  0.23879397  0.22000263  0.28992312    -0.58100
O143        O  0.18961614  0.24865162  0.24583647    -0.56600
O144        O  0.22310961  0.25586069  0.37670518    -0.56600
O145        O  0.20346817  0.31486450  0.30700761    -0.55700
C146        C  0.09686189  0.24088922  0.12744018     0.04000
C147        C  0.10367961  0.25030224  0.08932328    -0.12100
C148        C  0.08622341  0.25062299  0.05914372     0.01500
C149        C  0.06215537  0.24128469  0.06688874    -0.10700
C150        C  0.05525441  0.23105954  0.10431886     0.04000
C151        C  0.07258477  0.23133536  0.13476122    -0.10100
H152        H  0.12219343  0.25828408  0.08343917     0.09600
H153        H  0.04859986  0.24252878  0.04360428     0.07100
H154        H  0.06718654  0.22425394  0.16407888     0.07000
C155        C  0.90845559  0.22225017  0.13005995     0.04000
C156        C  0.90063258  0.22701202  0.09100930    -0.12100
C157        C  0.91766482  0.22747331  0.06038216     0.01500
C158        C  0.94261011  0.22480084  0.06869384    -0.10700
C159        C  0.95094328  0.22077944  0.10729022     0.04000
C160        C  0.93376929  0.21908755  0.13792743    -0.10100
H161        H  0.88144807  0.23085886  0.08432616     0.09600
H162        H  0.95567252  0.22629857  0.04474767     0.07100
H163        H  0.94005810  0.21507237  0.16769637     0.07000
O164        O  0.81670957  0.23784036  0.36976289    -0.56900
C165        C  0.83501299  0.23244153  0.25217703     0.75700
O166        O  0.76078927  0.20034629  0.28509587    -0.58100
C167        C  0.79769223  0.24200151  0.39054241     0.75700
C168        C  0.77446692  0.29894220  0.28709050     0.78100
Cd169      Cd  0.79457289  0.23722903  0.30594290     1.37500
O170        O  0.83886217  0.23873245  0.28810771    -0.56900
O171        O  0.79657930  0.29504586  0.29715293    -0.55700
C172        C  0.77231992  0.17516314  0.29368051     0.78000
O173        O  0.76173870  0.27391281  0.28399303    -0.58100
O174        O  0.81284376  0.22909537  0.24194748    -0.56600
O175        O  0.77759670  0.24333845  0.37206913    -0.56600
O176        O  0.79354313  0.17902754  0.30799691    -0.55700
C177        C  0.89550568  0.23994661  0.19702740    -0.11400
C178        C  0.89037028  0.22242849  0.16276069     0.05600
C179        C  0.86753287  0.20678722  0.15967786    -0.06700
C180        C  0.85006266  0.21043950  0.18931345    -0.07400
C181        C  0.85492840  0.22856068  0.22305094    -0.02000
C182        C  0.87821752  0.24275601  0.22729847     0.04800
N183        N  0.88434676  0.26104642  0.26131091     0.67300
H184        H  0.91287310  0.25228724  0.20000694     0.16200
H185        H  0.83254650  0.19847938  0.18605953     0.16000
N186        N  0.86203295  0.18614230  0.12745042     0.75100
O187        O  0.89609669  0.24812455  0.28893859    -0.38400
O188        O  0.88324872  0.29088906  0.25969267    -0.38300
O189        O  0.86943461  0.15780951  0.12849191    -0.39000
O190        O  0.84519860  0.19359781  0.10370788    -0.39100
C191        C  0.01590995  0.24045331  0.13925275    -0.11400
C192        C  0.02931535  0.22284130  0.11156410     0.05600
C193        C  0.01693246  0.20096175  0.08723126    -0.06700
C194        C  0.99145169  0.19869834  0.08906973    -0.07400
C195        C  0.97775410  0.21845848  0.11405075    -0.02000
C196        C  0.99024733  0.23864141  0.14052239     0.04800
N197        N  0.97718256  0.25965041  0.16603256     0.67300
H198        H  0.02523951  0.25754664  0.15790867     0.16200
H199        H  0.98214537  0.18255033  0.06912271     0.16000
N200        N  0.02986637  0.18188032  0.05926692     0.75100
O201        O  0.97569375  0.25328642  0.20216286    -0.38400
O202        O  0.97189151  0.28718373  0.15435980    -0.38300
O203        O  0.03751062  0.15487068  0.06935914    -0.39000
O204        O  0.02849322  0.18854474  0.02318705    -0.39100
C205        C  0.15423378  0.23151610  0.18932875    -0.11400
C206        C  0.14845644  0.24999610  0.22247415     0.05600
C207        C  0.12528283  0.26488814  0.22448990    -0.06700
C208        C  0.10859631  0.26117846  0.19348641    -0.07400
C209        C  0.11458148  0.24294678  0.16024815    -0.02000
C210        C  0.13758271  0.22779895  0.15847144     0.04800
N211        N  0.14397908  0.20765448  0.12621918     0.67300
H212        H  0.17179893  0.21943429  0.18745661     0.16200
H213        H  0.09102995  0.27330175  0.19493338     0.16000
N214        N  0.11886577  0.28509711  0.25665578     0.75100
O215        O  0.15954202  0.21701670  0.10142233    -0.38400
O216        O  0.13861467  0.17859908  0.12766984    -0.38300
O217        O  0.12309882  0.31443040  0.25433600    -0.39000
O218        O  0.10445175  0.27506197  0.28278869    -0.39100
C219        C  0.27090152  0.12546382  0.28439875    -0.11400
C220        C  0.25522716  0.09950244  0.29041425     0.05600
C221        C  0.23007435  0.10531794  0.29709152    -0.06700
C222        C  0.22137988  0.13654606  0.29883257    -0.07400
C223        C  0.23717878  0.16257821  0.29391767    -0.02000
C224        C  0.26220116  0.15669201  0.28599652     0.04800
N225        N  0.27929786  0.18199042  0.28104886     0.67300
H226        H  0.29030451  0.12157799  0.27913899     0.16200
H227        H  0.20204753  0.14035917  0.30476013     0.16000
N228        N  0.21327863  0.08001643  0.30420363     0.75100
O229        O  0.29089653  0.19231823  0.31052803    -0.38400
O230        O  0.28673206  0.18875159  0.24698433    -0.38300
O231        O  0.20673764  0.07413935  0.33899411    -0.39000
O232        O  0.20099061  0.06883009  0.27595425    -0.39100
C233        C  0.23286184  0.40839831  0.28635116    -0.11400
C234        C  0.25849479  0.41146371  0.28665204     0.05600
C235        C  0.27301007  0.38366966  0.28747938    -0.06700
C236        C  0.26179089  0.35389973  0.28932796    -0.07400
C237        C  0.23618581  0.35087889  0.29100694    -0.02000
C238        C  0.22162548  0.37862924  0.28891330     0.04800
N239        N  0.19544636  0.37723772  0.29011895     0.67300
H240        H  0.22132636  0.42938656  0.28575568     0.16200
H241        H  0.27337313  0.33297672  0.29060213     0.16000
N242        N  0.29918469  0.38509799  0.28680171     0.75100
O243        O  0.18462438  0.37978047  0.32275327    -0.38400
O244        O  0.18337871  0.38088475  0.25878834    -0.38300
O245        O  0.31101653  0.38105518  0.31829048    -0.39000
O246        O  0.31024278  0.38301241  0.25433254    -0.39100
C247        C  0.34303774  0.98955424  0.17744871    -0.11400
C248        C  0.34632268  0.00849776  0.21107299     0.05600
C249        C  0.36804268  0.02645459  0.21475276    -0.06700
C250        C  0.38614903  0.02450213  0.18565099    -0.07400
C251        C  0.38298903  0.00527051  0.15230192    -0.02000
C252        C  0.36111402  0.98769210  0.14827111     0.04800
N253        N  0.35752414  0.96658958  0.11583260     0.67300
H254        H  0.32656503  0.97533066  0.17424575     0.16200
H255        H  0.40263659  0.03872611  0.18870320     0.16000
N256        N  0.37142250  0.04809800  0.24667433     0.75100
O257        O  0.36540245  0.93851570  0.11804702    -0.38400
O258        O  0.34223390  0.97365292  0.08939716    -0.38300
O259        O  0.38732484  0.54223316  0.27263313    -0.39000
O260        O  0.36230213  0.07554793  0.24454639    -0.39100
C261        C  0.76679263  0.38871477  0.28210743    -0.11400
C262        C  0.74116837  0.39172929  0.28108317     0.05600
C263        C  0.72681251  0.36393478  0.27778493    -0.06700
C264        C  0.73814198  0.33409353  0.27788363    -0.07400
C265        C  0.76370569  0.33102491  0.28128956    -0.02000
C266        C  0.77812696  0.35889851  0.28222745     0.04800
N267        N  0.80429440  0.35752376  0.28388479     0.67300
H268        H  0.77823433  0.40970040  0.28409312     0.16200
H269        H  0.72665905  0.31311845  0.27652658     0.16000
N270        N  0.70071687  0.36543477  0.27430792     0.75100
O271        O  0.81642000  0.35755158  0.25231345    -0.38400
O272        O  0.81510661  0.36314074  0.31596624    -0.38300
O273        O  0.69099131  0.36274640  0.24079261    -0.39000
O274        O  0.68763559  0.36197485  0.30456518    -0.39100
C275        C  0.72777261  0.10596076  0.28028887    -0.11400
C276        C  0.74338739  0.07969916  0.28525882     0.05600
C277        C  0.76881318  0.08525581  0.28950087    -0.06700
C278        C  0.77772720  0.11642175  0.29119738    -0.07400
C279        C  0.76196277  0.14272576  0.28800699    -0.02000
C280        C  0.73676777  0.13711927  0.28111006     0.04800
N281        N  0.71986280  0.16266306  0.27593770     0.67300
H282        H  0.70823095  0.10237616  0.27621770     0.16200
H283        H  0.79723523  0.11998228  0.29569270     0.16000
N284        N  0.78582122  0.05969941  0.29367366     0.75100
O285        O  0.71494915  0.17205021  0.24163929    -0.38400
O286        O  0.70605294  0.17066319  0.30401670    -0.38300
O287        O  0.79825216  0.05090523  0.26432156    -0.39000
O288        O  0.79228118  0.05107763  0.32762257    -0.39100
C289        C  0.48180922  0.46313175  0.09602695    -0.11400
C290        C  0.47132991  0.98936642  0.11504319     0.05600
C291        C  0.48634469  0.00930640  0.13805625    -0.06700
C292        C  0.51180260  0.00439360  0.13862978    -0.07400
C293        C  0.52249757  0.47994134  0.11636864    -0.02000
C294        C  0.50715568  0.45815587  0.09670823     0.04800
N295        N  0.51719398  0.43166960  0.07592095     0.67300
H296        H  0.47031906  0.44731419  0.07880148     0.16200
H297        H  0.52341392  0.02143261  0.15370570     0.16000
N298        N  0.47638798  0.03650160  0.15744464     0.75100
O299        O  0.52140174  0.40627142  0.09422185    -0.38400
O300        O  0.51687105  0.43138225  0.03883379    -0.38300
O301        O  0.47379200  0.03627195  0.19428887    -0.39000
O302        O  0.47475568  0.06238051  0.13913250    -0.39100
C303        C  0.63373383  0.47273734  0.14933919    -0.11400
C304        C  0.61123460  0.48727607  0.15859580     0.05600
C305        C  0.60821560  0.50039497  0.19667959    -0.06700
C306        C  0.62750331  0.49895913  0.22391306    -0.07400
C307        C  0.65014790  0.48519785  0.21410534    -0.02000
C308        C  0.65309400  0.47182425  0.17629955     0.04800
N309        N  0.67537956  0.45646833  0.16496115     0.67300
H310        H  0.63635521  0.46162002  0.12085292     0.16200
H311        H  0.62490313  0.00957507  0.25270599     0.16000
N312        N  0.58623688  0.51656040  0.20784968     0.75100
O313        O  0.67759669  0.42697266  0.16988445    -0.38400
O314        O  0.69024372  0.47072389  0.14279840    -0.38300
O315        O  0.57233891  0.50422404  0.23318800    -0.39000
O316        O  0.58405824  0.04568622  0.20029717    -0.39100
C317        C  0.82062583  0.23677312  0.45389629    -0.11400
C318        C  0.79879981  0.24456039  0.43406043     0.05600
C319        C  0.77813453  0.25372234  0.45644066    -0.06700
C320        C  0.77921054  0.25310245  0.49741449    -0.07400
C321        C  0.80066041  0.24409985  0.51735291    -0.02000
C322        C  0.82177921  0.23663882  0.49513449     0.04800
N323        N  0.84426830  0.22788906  0.51374735     0.67300
H324        H  0.83683271  0.23002586  0.43734174     0.16200
H325        H  0.76292430  0.25985970  0.51378084     0.16000
N326        N  0.75595709  0.26426418  0.43821526     0.75100
O327        O  0.84884422  0.19898562  0.51976998    -0.38400
O328        O  0.86136972  0.24791755  0.51628219    -0.38300
O329        O  0.73755173  0.24617154  0.43739030    -0.39000
O330        O  0.75323129  0.29332406  0.43067288    -0.39100
C331        C  0.90747857  0.26541058  0.96206720    -0.11400
C332        C  0.91083639  0.23921087  0.93713032     0.05600
C333        C  0.91225251  0.20857018  0.95325432    -0.06700
C334        C  0.91206597  0.20476314  0.99407463    -0.07400
C335        C  0.91026769  0.23114116  0.01905032    -0.02000
C336        C  0.90696465  0.26150026  0.00292383     0.04800
N337        N  0.90525304  0.28873290  0.02783566     0.67300
H338        H  0.90655324  0.28906894  0.94984153     0.16200
H339        H  0.91503174  0.18139581  0.00637319     0.16000
N340        N  0.91616173  0.18150178  0.92869977     0.75100
O341        O  0.92444571  0.30341685  0.03773867    -0.38400
O342        O  0.88510496  0.29550322  0.04405221    -0.38300
O343        O  0.93770546  0.17157102  0.92292981    -0.39000
O344        O  0.89819390  0.16428397  0.91919613    -0.39100
C345        C  0.86943543  0.26796857  0.79250842    -0.11400
C346        C  0.88643015  0.24322721  0.79568654     0.05600
C347        C  0.88548607  0.21774842  0.76894621    -0.06700
C348        C  0.86790229  0.21773293  0.73877632    -0.07400
C349        C  0.85074723  0.24251897  0.73561042    -0.02000
C350        C  0.85163425  0.26779106  0.76287119     0.04800
N351        N  0.83541322  0.29427457  0.75960459     0.67300
H352        H  0.87025807  0.28779617  0.81281058     0.16200
H353        H  0.86718396  0.19789800  0.71850094     0.16000
N354        N  0.90164361  0.19127045  0.77317348     0.75100
O355        O  0.81728840  0.29651821  0.78247765    -0.38400
O356        O  0.84192449  0.31808692  0.73986188    -0.38300
O357        O  0.89806355  0.17141592  0.80023224    -0.39000
O358        O  0.92083217  0.18948503  0.75259239    -0.39100
C359        C  0.10108422  0.24431267  0.95180546    -0.11400
C360        C  0.08930155  0.27158697  0.93756693     0.05600
C361        C  0.08105902  0.29480004  0.96444775    -0.06700
C362        C  0.08233939  0.28892651  0.00481407    -0.07400
C363        C  0.09222512  0.26047226  0.01885303    -0.02000
C364        C  0.10268333  0.23872584  0.99229052     0.04800
N365        N  0.11282186  0.20953708  0.00597767     0.67300
H366        H  0.10753986  0.22633739  0.93148160     0.16200
H367        H  0.07433994  0.30580553  0.02519203     0.16000
N368        N  0.07064919  0.32396074  0.95107975     0.75100
O369        O  0.09905130  0.18589715  0.01109188    -0.38400
O370        O  0.13467736  0.20872149  0.01814819    -0.38300
O371        O  0.04785758  0.32857920  0.95414923    -0.39000
O372        O  0.08458378  0.34706792  0.94384430    -0.39100
C373        C  0.00920797  0.29776840  0.85081949    -0.11400
C374        C  0.02432278  0.27369959  0.83581342     0.05600
C375        C  0.01342974  0.24689372  0.81802603    -0.06700
C376        C  0.98783449  0.24347055  0.81850699    -0.07400
C377        C  0.97292578  0.26632737  0.83664229    -0.02000
C378        C  0.98370385  0.29433446  0.85128866     0.04800
N379        N  0.96900379  0.31892110  0.86812378     0.67300
H380        H  0.01736693  0.31863997  0.86422231     0.16200
H381        H  0.97972017  0.22174523  0.80732873     0.16000
N382        N  0.02813111  0.22149139  0.80318655     0.75100
O383        O  0.96712400  0.32104339  0.90499994    -0.38400
O384        O  0.96246214  0.34197093  0.84701171    -0.38300
O385        O  0.03335517  0.19849790  0.82530829    -0.39000
O386        O  0.03146419  0.21890250  0.76662348    -0.39100
C387        C  0.18067377  0.25687895  0.45932102    -0.11400
C388        C  0.20284508  0.25232194  0.43903180     0.05600
C389        C  0.22449874  0.24692702  0.46091477    -0.06700
C390        C  0.22379029  0.24770011  0.50185953    -0.07400
C391        C  0.20185977  0.25342657  0.52226995    -0.02000
C392        C  0.17996738  0.25737751  0.50054091     0.04800
N393        N  0.15693839  0.26222300  0.51962545     0.67300
H394        H  0.16376912  0.26066666  0.44313428     0.16200
H395        H  0.24079858  0.24385377  0.51775202     0.16000
N396        N  0.24742028  0.24024570  0.44224538     0.75100
O397        O  0.14913665  0.29007869  0.52491544    -0.38400
O398        O  0.14242588  0.23917821  0.52355912    -0.38300
O399        O  0.26385688  0.26126805  0.44160634    -0.39000
O400        O  0.25304992  0.21188692  0.43448364    -0.39100
C401        C  0.10864949  0.25318998  0.76020465    -0.11400
C402        C  0.11334003  0.27052688  0.79484143     0.05600
C403        C  0.13665462  0.28500432  0.79927773    -0.06700
C404        C  0.15455411  0.28097107  0.77033081    -0.07400
C405        C  0.14975707  0.26385656  0.73583741    -0.02000
C406        C  0.12636186  0.25021501  0.73060765     0.04800
N407        N  0.12044377  0.23255522  0.69598378     0.67300
H408        H  0.09120818  0.24125038  0.75614939     0.16200
H409        H  0.17223938  0.29234390  0.77443360     0.16000
N410        N  0.14227851  0.30515679  0.83192834     0.75100
O411        O  0.12397607  0.20299738  0.69534232    -0.38400
O412        O  0.10735613  0.24515392  0.66969506    -0.38300
O413        O  0.15896014  0.29708655  0.85565066    -0.39000
O414        O  0.13511048  0.33359836  0.83150616    -0.39100
C415        C  0.42226725  0.05209624  0.95584959    -0.11400
C416        C  0.41353046  0.02824807  0.93066210     0.05600
C417        C  0.40207138  0.00134369  0.94704700    -0.06700
C418        C  0.40126450  0.99773659  0.98806027    -0.07400
C419        C  0.41165804  0.02062165  0.01298415    -0.02000
C420        C  0.42144049  0.04849346  0.99662843     0.04800
N421        N  0.43152989  0.07276399  0.02112889     0.67300
H422        H  0.43086023  0.07308152  0.94367903     0.16200
H423        H  0.39392198  0.97604048  0.00039549     0.16000
N424        N  0.39314930  0.97630065  0.92257537     0.75100
O425        O  0.45442476  0.57407459  0.02634562    -0.38400
O426        O  0.41837735  0.09619112  0.03061336    -0.38300
O427        O  0.40657844  0.45249932  0.91594492    -0.39000
O428        O  0.37057896  0.97496688  0.91451912    -0.39100
C429        C  0.27636182  0.00545021  0.49396899    -0.11400
C430        C  0.29926700  0.00709891  0.51274050     0.05600
C431        C  0.32067103  0.50705364  0.48930496    -0.06700
C432        C  0.31866234  0.50579735  0.44813558    -0.07400
C433        C  0.29563834  0.00457113  0.42949626    -0.02000
C434        C  0.27431486  0.00413336  0.45314357     0.04800
N435        N  0.25028165  0.00243695  0.43644611     0.67300
H436        H  0.25958602  0.00510899  0.51111656     0.16200
H437        H  0.33530242  0.50616259  0.43066291     0.16000
N438        N  0.34452453  0.50883688  0.50654319     0.75100
O439        O  0.24002006  0.97580054  0.43273939    -0.38400
O440        O  0.23754796  0.02733961  0.43378987    -0.38300
O441        O  0.35757365  0.48416351  0.50842727    -0.39000
O442        O  0.35440374  0.53558856  0.51145389    -0.39100
C443        C  0.22550495  0.13855998  0.66166024    -0.11400
C444        C  0.24109637  0.16486493  0.66651830     0.05600
C445        C  0.26653051  0.15929623  0.67079030    -0.06700
C446        C  0.27576523  0.12829177  0.66843126    -0.07400
C447        C  0.26027328  0.10215805  0.66190941    -0.02000
C448        C  0.23475574  0.10755813  0.65928933     0.04800
N449        N  0.21803967  0.08220699  0.65177414     0.67300
H450        H  0.20589015  0.14204886  0.65837800     0.16200
H451        H  0.29542619  0.12477600  0.67091490     0.16000
N452        N  0.28344868  0.18479448  0.67600987     0.75100
O453        O  0.20626430  0.07027157  0.67998234    -0.38400
O454        O  0.21100446  0.07700938  0.61700151    -0.38300
O455        O  0.29229097  0.19008971  0.70968076    -0.39000
O456        O  0.29347701  0.19700668  0.64628459    -0.39100
C457        C  0.23994710  0.41138241  0.66214726    -0.11400
C458        C  0.26531197  0.41424620  0.65603879     0.05600
C459        C  0.27943285  0.38619077  0.65226448    -0.06700
C460        C  0.26801821  0.35641721  0.65436720    -0.07400
C461        C  0.24253394  0.35365819  0.65928806    -0.02000
C462        C  0.22850372  0.38168164  0.66351291     0.04800
N463        N  0.20259627  0.38054503  0.66956472     0.67300
H464        H  0.22866752  0.43246412  0.66523152     0.16200
H465        H  0.27916590  0.33526468  0.65079946     0.16000
N466        N  0.30530218  0.38733961  0.64570850     0.75100
O467        O  0.19434372  0.37889807  0.70413194    -0.38400
O468        O  0.18835620  0.38819674  0.64190470    -0.38300
O469        O  0.31978555  0.38225398  0.67394820    -0.39000
O470        O  0.31338649  0.38659992  0.61097088    -0.39100
C471        C  0.37293162  0.50166012  0.79055938    -0.11400
C472        C  0.38960657  0.02686432  0.78769611     0.05600
C473        C  0.38816710  0.04727409  0.75489417    -0.06700
C474        C  0.37061395  0.04170892  0.72555734    -0.07400
C475        C  0.35384589  0.01663684  0.72867900    -0.02000
C476        C  0.35508005  0.49653810  0.76170004     0.04800
N477        N  0.33893481  0.47010999  0.76572386     0.67300
H478        H  0.37398324  0.48543226  0.81520417     0.16200
H479        H  0.36949805  0.05788548  0.70086898     0.16000
N480        N  0.40328872  0.07482877  0.75209727     0.75100
O481        O  0.34521614  0.44351628  0.75193632    -0.38400
O482        O  0.32131006  0.97169935  0.78966488    -0.38300
O483        O  0.41976982  0.07599351  0.72612744    -0.39000
O484        O  0.39652902  0.10010760  0.76882419    -0.39100
C485        C  0.68211798  0.48662961  0.49275982    -0.11400
C486        C  0.70453061  0.48548602  0.51320468     0.05600
C487        C  0.72646201  0.48272473  0.49119010    -0.06700
C488        C  0.72561182  0.48213826  0.45014309    -0.07400
C489        C  0.70331514  0.48388539  0.42956619    -0.02000
C490        C  0.68129720  0.48568419  0.45144097     0.04800
N491        N  0.65795241  0.48648453  0.43240073     0.67300
H492        H  0.66501551  0.48835187  0.50891635     0.16200
H493        H  0.74281511  0.48030089  0.43427153     0.16000
N494        N  0.74987690  0.47995454  0.50981665     0.75100
O495        O  0.64689288  0.46081480  0.42544547    -0.38400
O496        O  0.64632333  0.01230049  0.43043567    -0.38300
O497        O  0.75954140  0.45291946  0.51340227    -0.39000
O498        O  0.76296121  0.00436994  0.51427540    -0.39100
C499        C  0.72416171  0.36847599  0.65675367    -0.11400
C500        C  0.73980806  0.39498299  0.65746273     0.05600
C501        C  0.76540572  0.38972738  0.65849433    -0.06700
C502        C  0.77467542  0.35872997  0.65851505    -0.07400
C503        C  0.75907764  0.33224251  0.65711275    -0.02000
C504        C  0.73346239  0.33742403  0.65644914     0.04800
N505        N  0.71660336  0.31163170  0.65342923     0.67300
H506        H  0.70443770  0.37178571  0.65560372     0.16200
H507        H  0.79441826  0.35546291  0.65883293     0.16000
N508        N  0.78238502  0.41546456  0.65749232     0.75100
O509        O  0.70618442  0.30151648  0.68400935    -0.38400
O510        O  0.70820500  0.30399136  0.62014866    -0.38300
O511        O  0.79306328  0.42391759  0.68871973    -0.39000
O512        O  0.79046710  0.42489663  0.62481726    -0.39100
C513        C  0.76432654  0.08681255  0.65293412    -0.11400
C514        C  0.73881512  0.08378447  0.65577841     0.05600
C515        C  0.72444259  0.11145393  0.66063684    -0.06700
C516        C  0.73576040  0.14130067  0.66164399    -0.07400
C517        C  0.76128729  0.14439878  0.65746596    -0.02000
C518        C  0.77560987  0.11655402  0.65345485     0.04800
N519        N  0.80166641  0.11786092  0.64950702     0.67300
H520        H  0.77570596  0.06587853  0.64920801     0.16200
H521        H  0.72435507  0.16224884  0.66492316     0.16000
N522        N  0.69842302  0.10972737  0.66523419     0.75100
O523        O  0.81494023  0.11510279  0.67970272    -0.38400
O524        O  0.81117389  0.11443602  0.61595365    -0.38300
O525        O  0.68935033  0.10999867  0.69933717    -0.39000
O526        O  0.68470453  0.11489492  0.63605105    -0.39100
C527        C  0.58896181  0.47397955  0.99069285    -0.11400
C528        C  0.58689308  0.49942729  0.01706399     0.05600
C529        C  0.58725466  0.53062521  0.00262476    -0.06700
C530        C  0.58786315  0.53593207  0.96195569    -0.07400
C531        C  0.58874224  0.51041382  0.93530089    -0.02000
C532        C  0.59014308  0.47924167  0.95004502     0.04800
N533        N  0.59060077  0.45261308  0.92403592     0.67300
H534        H  0.58847055  0.44988472  0.00161516     0.16200
H535        H  0.58665938  0.05998370  0.95104906     0.16000
N536        N  0.58544375  0.55698317  0.02895001     0.75100
O537        O  0.61080134  0.43944304  0.91614012    -0.38400
O538        O  0.57083071  0.43864662  0.91557154    -0.38300
O539        O  0.60427343  0.06652004  0.04700697    -0.39000
O540        O  0.56462171  0.56754082  0.03853645    -0.39100
C541        C  0.49079484  0.06438223  0.84628484    -0.11400
C542        C  0.47784231  0.03912531  0.82919710     0.05600
C543        C  0.49092926  0.51515235  0.80921569    -0.06700
C544        C  0.51662295  0.51515813  0.81016677    -0.07400
C545        C  0.52949376  0.03867764  0.83088771    -0.02000
C546        C  0.51643931  0.06445670  0.84704559     0.04800
N547        N  0.52898278  0.09036791  0.86522297     0.67300
H548        H  0.48087732  0.08338472  0.86090866     0.16200
H549        H  0.52646919  0.49515560  0.79762027     0.16000
N550        N  0.47849867  0.48890148  0.79164000     0.75100
O551        O  0.53600812  0.11324484  0.84427329    -0.38400
O552        O  0.52815140  0.09368642  0.90207031    -0.38300
O553        O  0.47760547  0.48658305  0.75468298    -0.39000
O554        O  0.47279214  0.46535849  0.81248430    -0.39100
C555        C  0.63903953  0.51973188  0.79848891    -0.11400
C556        C  0.61522329  0.50794310  0.79286091     0.05600
C557        C  0.60977083  0.49206293  0.75715946    -0.06700
C558        C  0.62787493  0.48868404  0.72817059    -0.07400
C559        C  0.65166472  0.50046651  0.73385894    -0.02000
C560        C  0.65712754  0.51632823  0.76951857     0.04800
N561        N  0.68050889  0.53071319  0.77600946     0.67300
H562        H  0.64347919  0.53269766  0.82515450     0.16200
H563        H  0.62335199  0.47614497  0.70123002     0.16000
N564        N  0.58627671  0.47807651  0.75035316     0.75100
O565        O  0.68450756  0.05815986  0.76290629    -0.38400
O566        O  0.69494030  0.51906994  0.80114414    -0.38300
O567        O  0.57232156  0.98972379  0.72451544    -0.39000
O568        O  0.58213182  0.45049029  0.76288948    -0.39100
C569        C  0.59629214  0.01404795  0.82367524     0.04000
C570        C  0.57302364  0.52582926  0.81315170    -0.12100
C571        C  0.55531216  0.53234465  0.84189023     0.01500
C572        C  0.56117684  0.52806155  0.88163465    -0.10700
C573        C  0.58419090  0.01644786  0.89294247     0.04000
C574        C  0.60169230  0.00927951  0.86388048    -0.10100
H575        H  0.56854311  0.53002864  0.78262922     0.09600
H576        H  0.54726571  0.53208733  0.90387382     0.07100
H577        H  0.61939425  0.99993144  0.87255345     0.07000
O578        O  0.66452851  0.99048165  0.66699382    -0.56900
C579        C  0.70476156  0.98719303  0.55699676     0.75700
O580        O  0.74019646  0.52686942  0.65950903    -0.58100
C581        C  0.67037966  0.99575928  0.70258725     0.75700
C582        C  0.72895371  0.92737016  0.65468327     0.78100
Cd583      Cd  0.70734382  0.98944942  0.64214218     1.37500
O584        O  0.68532148  0.98623787  0.57753761    -0.56900
O585        O  0.70656338  0.93129318  0.64607458    -0.55700
C586        C  0.72791459  0.55174393  0.65203470     0.78000
O587        O  0.74133055  0.95249392  0.65981529    -0.58100
O588        O  0.72457767  0.98979816  0.57599188    -0.56600
O589        O  0.69311462  0.99672564  0.71003044    -0.56600
O590        O  0.70616327  0.54764877  0.64006609    -0.55700
O591        O  0.33791751  0.52143605  0.66309719    -0.56900
C592        C  0.29951918  0.50854759  0.55641873     0.75700
O593        O  0.26395569  0.97130903  0.66120419    -0.58100
C594        C  0.33452075  0.51309107  0.69844563     0.75700
C595        C  0.27154632  0.57030557  0.65581914     0.78100
Cd596      Cd  0.29573989  0.50972491  0.64114904     1.37500
O597        O  0.31884816  0.50695037  0.57709066    -0.56900
O598        O  0.29392312  0.56765069  0.64668204    -0.55700
C599        C  0.27609313  0.94657079  0.65243540     0.78000
O600        O  0.25978995  0.54451269  0.65897755    -0.58100
O601        O  0.27963134  0.51117998  0.57519393    -0.56600
O602        O  0.31348243  0.50243653  0.70679750    -0.56600
O603        O  0.29757402  0.95114201  0.63957763    -0.55700
C604        C  0.40856682  0.53058297  0.81876774     0.04000
C605        C  0.40187075  0.52867919  0.85874702    -0.12100
C606        C  0.41977171  0.53019540  0.88830404     0.01500
C607        C  0.44439530  0.53394699  0.87770491    -0.10700
C608        C  0.45143153  0.53581728  0.83823083     0.04000
C609        C  0.43351073  0.53384335  0.80874132    -0.10100
H610        H  0.38275277  0.52628178  0.86682797     0.09600
H611        H  0.45833267  0.53481105  0.90044470     0.07100
H612        H  0.43903920  0.53435798  0.77817958     0.07000
O613        O  0.18442936  0.76017476  0.58732455    -0.56900
C614        C  0.16944704  0.76135947  0.70607271     0.75700
O615        O  0.24272688  0.72250504  0.66908483    -0.58100
C616        C  0.20302328  0.75552590  0.56575415     0.75700
C617        C  0.23099422  0.82168827  0.65756662     0.78100
Cd618      Cd  0.20858883  0.75927655  0.64973688     1.37500
O619        O  0.16510756  0.75626915  0.67001717    -0.56900
O620        O  0.20872995  0.81794043  0.64820638    -0.55700
C621        C  0.23039740  0.69736881  0.66378496     0.78000
O622        O  0.24302039  0.79650401  0.66421491    -0.58100
O623        O  0.19174339  0.76496327  0.71559440    -0.56600
O624        O  0.22333421  0.75297136  0.58337944    -0.56600
O625        O  0.20815594  0.70134435  0.65443819    -0.55700
C626        C  0.09406097  0.77232385  0.82601118     0.04000
C627        C  0.06892706  0.77400693  0.81589510    -0.12100
C628        C  0.05085058  0.77455957  0.84521850     0.01500
C629        C  0.05792044  0.77494525  0.88478005    -0.10700
C630        C  0.08267369  0.77334815  0.89544857     0.04000
C631        C  0.10052668  0.77076419  0.86609514    -0.10100
H632        H  0.06330519  0.77491781  0.78538794     0.09600
H633        H  0.04397839  0.77508816  0.90747497     0.07100
H634        H  0.11938605  0.76702311  0.87481527     0.07000
C635        C  0.90546667  0.74512202  0.82639372     0.04000
C636        C  0.92962954  0.75353372  0.81642455    -0.12100
C637        C  0.94719406  0.75828453  0.84601840     0.01500
C638        C  0.94060367  0.75368994  0.88539845    -0.10700
C639        C  0.91674013  0.74461701  0.89545293     0.02800
C640        C  0.89911388  0.74051479  0.86594774    -0.10100
H641        H  0.93456639  0.75707111  0.78591214     0.09600
H642        H  0.95426442  0.75652798  0.90834080     0.07100
H643        H  0.88053020  0.73394755  0.87370658     0.07000
O644        O  0.81848871  0.74105976  0.58275018    -0.56900
C645        C  0.83168013  0.74127793  0.70468844     0.75700
O646        O  0.75844539  0.77469073  0.66056487    -0.58100
C647        C  0.79966078  0.74209299  0.56087059     0.75700
C648        C  0.77230773  0.67659648  0.65521752     0.78100
Cd649      Cd  0.79383174  0.73891242  0.64512722     1.37500
O650        O  0.83627185  0.73159973  0.67017428    -0.56900
O651        O  0.79409639  0.68078854  0.64383832    -0.55700
C652        C  0.77028359  0.80007995  0.65430844     0.78000
O653        O  0.76031351  0.70152681  0.66345181    -0.58100
O654        O  0.80980080  0.74967128  0.71150767    -0.56600
O655        O  0.77919859  0.74140596  0.57822088    -0.56600
O656        O  0.79264178  0.79673830  0.64505852    -0.55700
C657        C  0.59168682  0.98823775  0.12779475     0.04000
C658        C  0.56690270  0.98193983  0.13683068    -0.12100
C659        C  0.54900004  0.98179255  0.10711833     0.01500
C660        C  0.55603524  0.98705139  0.06807050    -0.10700
C661        C  0.58048912  0.99309108  0.05849063     0.04000
C662        C  0.59815993  0.99420133  0.08831146    -0.10100
H663        H  0.56141800  0.97669985  0.16662655     0.09600
H664        H  0.54225175  0.98769669  0.04508059     0.07100
H665        H  0.61694712  0.99972634  0.08062325     0.07000
O666        O  0.66615333  0.98983964  0.27979064    -0.56900
C667        C  0.70420922  0.98434110  0.38576408     0.75700
O668        O  0.74247793  0.94886016  0.28108597    -0.58100
C669        C  0.67028425  0.98549397  0.24348466     0.75700
C670        C  0.73235306  0.54746515  0.28850509     0.78100
Cd671      Cd  0.70931515  0.98584916  0.30065261     1.37500
O672        O  0.68533724  0.98519624  0.36401992    -0.56900
O673        O  0.70966824  0.54400472  0.29489437    -0.55700
C674        C  0.73010866  0.92372578  0.28594378     0.78000
O675        O  0.74473008  0.52207738  0.28613803    -0.58100
O676        O  0.72454270  0.98413260  0.36796157    -0.56600
O677        O  0.69251373  0.98175472  0.23376180    -0.56600
O678        O  0.70810395  0.92750136  0.29671237    -0.55700
O679        O  0.33207253  0.51340591  0.27796326    -0.56900
C680        C  0.29414583  0.50459556  0.38584533     0.75700
O681        O  0.25380236  0.54205534  0.28799402    -0.58100
C682        C  0.32719912  0.50831388  0.24203200     0.75700
C683        C  0.26936623  0.94364827  0.28933866     0.78100
Cd684      Cd  0.28939713  0.50612210  0.30130924     1.37500
O685        O  0.31303987  0.50503810  0.36409770    -0.56900
O686        O  0.29105464  0.94802796  0.30145767    -0.55700
C687        C  0.26612635  0.56728747  0.29247458     0.78000
O688        O  0.25709472  0.96838953  0.28126672    -0.58100
O689        O  0.27376788  0.50456328  0.36818188    -0.56600
O690        O  0.30502402  0.50226728  0.23386514    -0.56600
O691        O  0.28872406  0.56374058  0.29953576    -0.55700
C692        C  0.40260083  0.50445571  0.12207455     0.04000
C693        C  0.39733989  0.51179943  0.08253919    -0.12100
C694        C  0.41625959  0.51276255  0.05464968     0.01500
C695        C  0.44026748  0.50561353  0.06612511    -0.10700
C696        C  0.44577539  0.49797869  0.10514174     0.04000
C697        C  0.42698174  0.49780417  0.13322050    -0.10100
H698        H  0.37877773  0.51761899  0.07372163     0.09600
H699        H  0.45481736  0.50586521  0.04439782     0.07100
H700        H  0.43122794  0.49196737  0.16346738     0.07000
O701        O  0.18369904  0.75435922  0.37510876    -0.56900
C702        C  0.16720520  0.75320796  0.25365074     0.75700
O703        O  0.23820405  0.79387088  0.29224321    -0.58100
C704        C  0.20319310  0.75411588  0.39552136     0.75700
C705        C  0.22701212  0.69507623  0.29874167     0.78100
Cd706      Cd  0.20547248  0.75671691  0.31122234     1.37500
O707        O  0.16204222  0.75992891  0.28908173    -0.56900
O708        O  0.20568230  0.69919452  0.31250670    -0.55700
C709        C  0.22549576  0.81884652  0.29658208     0.78000
O710        O  0.23879426  0.72000220  0.28992371    -0.58100
O711        O  0.18961648  0.74865130  0.24583602    -0.56600
O712        O  0.22310971  0.75586073  0.37670486    -0.56600
O713        O  0.20346783  0.81486389  0.30700737    -0.55700
C714        C  0.09686260  0.74088761  0.12743880     0.04000
C715        C  0.10368036  0.75030074  0.08932197    -0.12100
C716        C  0.08622419  0.75062170  0.05914236     0.01500
C717        C  0.06215609  0.74128355  0.06688729    -0.10700
C718        C  0.05525503  0.73105837  0.10431735     0.04000
C719        C  0.07258541  0.73133387  0.13475973    -0.10100
H720        H  0.12219417  0.75828269  0.08343796     0.09600
H721        H  0.04860058  0.74252796  0.04360282     0.07100
H722        H  0.06718713  0.72425245  0.16407727     0.07000
C723        C  0.90845602  0.72225149  0.13006039     0.04000
C724        C  0.90063284  0.72701304  0.09100972    -0.12100
C725        C  0.91766496  0.72747393  0.06038237     0.01500
C726        C  0.94261026  0.72480154  0.06869385    -0.10700
C727        C  0.95094363  0.72078035  0.10729015     0.04000
C728        C  0.93376976  0.71908883  0.13792760    -0.10100
H729        H  0.88144834  0.73085969  0.08432671     0.09600
H730        H  0.95567258  0.72629896  0.04474745     0.07100
H731        H  0.94005869  0.71507371  0.16769652     0.07000
O732        O  0.81670978  0.73784056  0.36976414    -0.56900
C733        C  0.83501358  0.73244174  0.25217816     0.75700
O734        O  0.76078993  0.70034584  0.28509599    -0.58100
C735        C  0.79769225  0.74200070  0.39054354     0.75700
C736        C  0.77446665  0.79894180  0.28709321     0.78100
Cd737      Cd  0.79457325  0.73722858  0.30594400     1.37500
O738        O  0.83886270  0.73873224  0.28810897    -0.56900
O739        O  0.79657905  0.79504561  0.29715565    -0.55700
C740        C  0.77232042  0.67516266  0.29368104     0.78000
O741        O  0.76173870  0.77391226  0.28399485    -0.58100
O742        O  0.81284435  0.72909575  0.24194850    -0.56600
O743        O  0.77759673  0.74333655  0.37207013    -0.56600
O744        O  0.79354349  0.67902700  0.30799807    -0.55700
C745        C  0.89550625  0.73994745  0.19702828    -0.11400
C746        C  0.89037077  0.72242961  0.16276133     0.05600
C747        C  0.86753340  0.70678824  0.15967856    -0.06700
C748        C  0.85006324  0.71044026  0.18931428    -0.07400
C749        C  0.85492902  0.72856116  0.22305200    -0.02000
C750        C  0.87821816  0.74275643  0.22729959     0.04800
N751        N  0.88434758  0.76104619  0.26131249     0.67300
H752        H  0.91287363  0.75228801  0.20000789     0.16200
H753        H  0.83254715  0.69848012  0.18606033     0.16000
N754        N  0.86203352  0.68614329  0.12745113     0.75100
O755        O  0.89609708  0.74812354  0.28894008    -0.38400
O756        O  0.88325023  0.79088890  0.25969482    -0.38300
O757        O  0.86943570  0.65781071  0.12849225    -0.39000
O758        O  0.84519884  0.69359842  0.10370903    -0.39100
C759        C  0.01591081  0.74045260  0.13925189    -0.11400
C760        C  0.02931585  0.72284068  0.11156269     0.05600
C761        C  0.01693252  0.70096170  0.08722961    -0.06700
C762        C  0.99145173  0.69869876  0.08906856    -0.07400
C763        C  0.97775451  0.71845886  0.11405015    -0.02000
C764        C  0.99024817  0.73864122  0.14052194     0.04800
N765        N  0.97718384  0.75965009  0.16603284     0.67300
H766        H  0.02524073  0.75754554  0.15790810     0.16200
H767        H  0.98214509  0.68255106  0.06912140     0.16000
N768        N  0.02986599  0.68188035  0.05926467     0.75100
O769        O  0.97569550  0.75328581  0.20216312    -0.38400
O770        O  0.97189268  0.78718352  0.15436059    -0.38300
O771        O  0.03751000  0.65487045  0.06935625    -0.39000
O772        O  0.02849255  0.68854518  0.02318493    -0.39100
C773        C  0.15423459  0.73151557  0.18932758    -0.11400
C774        C  0.14845682  0.74999496  0.22247331     0.05600
C775        C  0.12528293  0.76488628  0.22448914    -0.06700
C776        C  0.10859656  0.76117642  0.19348549    -0.07400
C777        C  0.11458211  0.74294529  0.16024694    -0.02000
C778        C  0.13758367  0.72779825  0.15847008     0.04800
N779        N  0.14398057  0.70765445  0.12621745     0.67300
H780        H  0.17180001  0.71943435  0.18745532     0.16200
H781        H  0.09102996  0.77329920  0.19493258     0.16000
N782        N  0.11886544  0.78509473  0.25665529     0.75100
O783        O  0.15954351  0.71701749  0.10142108    -0.38400
O784        O  0.13861673  0.67859885  0.12766745    -0.38300
O785        O  0.12309756  0.81442826  0.25433569    -0.39000
O786        O  0.10445182  0.77505873  0.28278824    -0.39100
C787        C  0.27090269  0.62546374  0.28440222    -0.11400
C788        C  0.25522820  0.59950214  0.29041537     0.05600
C789        C  0.23007505  0.60531740  0.29708989    -0.06700
C790        C  0.22138042  0.63654546  0.29883089    -0.07400
C791        C  0.23717942  0.66257778  0.29391838    -0.02000
C792        C  0.26220216  0.65669185  0.28599974     0.04800
N793        N  0.27929896  0.68199046  0.28105452     0.67300
H794        H  0.29030602  0.62157813  0.27914444     0.16200
H795        H  0.20204771  0.64035841  0.30475635     0.16000
N796        N  0.21327901  0.58001565  0.30419878     0.75100
O797        O  0.29089641  0.69231785  0.31053515    -0.38400
O798        O  0.28673444  0.68875234  0.24699093    -0.38300
O799        O  0.20673616  0.57413771  0.33898812    -0.39000
O800        O  0.20099258  0.56882987  0.27594728    -0.39100
C801        C  0.23286126  0.90839801  0.28635152    -0.11400
C802        C  0.25849419  0.91146366  0.28665347     0.05600
C803        C  0.27300961  0.88366975  0.28748189    -0.06700
C804        C  0.26179056  0.85389972  0.28933011    -0.07400
C805        C  0.23618547  0.85087863  0.29100777    -0.02000
C806        C  0.22162501  0.87862884  0.28891342     0.04800
N807        N  0.19544588  0.87723707  0.29011807     0.67300
H808        H  0.22132567  0.92938616  0.28575531     0.16200
H809        H  0.27337290  0.83297682  0.29060500     0.16000
N810        N  0.29918423  0.88509833  0.28680566     0.75100
O811        O  0.18462342  0.87977954  0.32275200    -0.38400
O812        O  0.18337868  0.88088417  0.25878704    -0.38300
O813        O  0.31101543  0.88105551  0.31829504    -0.39000
O814        O  0.31024302  0.88301298  0.25433707    -0.39100
C815        C  0.34303782  0.48955611  0.17744770    -0.11400
C816        C  0.34632357  0.50849782  0.21107337     0.05600
C817        C  0.36804414  0.52645329  0.21475420    -0.06700
C818        C  0.38615022  0.52450146  0.18565197    -0.07400
C819        C  0.38298944  0.50527162  0.15230147    -0.02000
C820        C  0.36111387  0.48769449  0.14826967     0.04800
N821        N  0.35752308  0.46659374  0.11582965     0.67300
H822        H  0.32656472  0.47533364  0.17424389     0.16200
H823        H  0.40263811  0.53872439  0.18870506     0.16000
N824        N  0.37142499  0.54809470  0.24667758     0.75100
O825        O  0.36540006  0.43851914  0.11804218    -0.38400
O826        O  0.34223300  0.47365935  0.08939490    -0.38300
O827        O  0.38732296  0.04223946  0.27262998    -0.39000
O828        O  0.36230641  0.57554573  0.24455153    -0.39100
C829        C  0.76679211  0.88871438  0.28210992    -0.11400
C830        C  0.74116782  0.89172892  0.28108743     0.05600
C831        C  0.72681186  0.86393432  0.27779120    -0.06700
C832        C  0.73814134  0.83409307  0.27788947    -0.07400
C833        C  0.76370517  0.83102449  0.28129319    -0.02000
C834        C  0.77812644  0.85889809  0.28222969     0.04800
N835        N  0.80429393  0.85752332  0.28388500     0.67300
H836        H  0.77823387  0.90970001  0.28409420     0.16200
H837        H  0.72665838  0.81311797  0.27653382     0.16000
N838        N  0.70071609  0.86543425  0.27431667     0.75100
O839        O  0.81641857  0.85755024  0.25231271    -0.38400
O840        O  0.81510715  0.86314084  0.31596544    -0.38300
O841        O  0.69098925  0.86274518  0.24080240    -0.39000
O842        O  0.68763595  0.86197510  0.30457534    -0.39100
C843        C  0.72777293  0.60596052  0.28028979    -0.11400
C844        C  0.74338773  0.57969885  0.28525879     0.05600
C845        C  0.76881360  0.58525537  0.28949996    -0.06700
C846        C  0.77772768  0.61642128  0.29119673    -0.07400
C847        C  0.76196324  0.64272534  0.28800726    -0.02000
C848        C  0.73676814  0.63711898  0.28111103     0.04800
N849        N  0.71986315  0.66266286  0.27593948     0.67300
H850        H  0.70823117  0.60237600  0.27621922     0.16200
H851        H  0.79723580  0.61998175  0.29569144     0.16000
N852        N  0.78582165  0.55969885  0.29367144     0.75100
O853        O  0.71494951  0.67205069  0.24164136    -0.38400
O854        O  0.70605322  0.67066231  0.30401869    -0.38300
O855        O  0.79825194  0.55090487  0.26431854    -0.39000
O856        O  0.79228215  0.55107648  0.32761985    -0.39100
C857        C  0.48180871  0.96312926  0.09602675    -0.11400
C858        C  0.47133039  0.48936919  0.11504272     0.05600
C859        C  0.48634517  0.50930980  0.13805495    -0.06700
C860        C  0.51180307  0.50439721  0.13862830    -0.07400
C861        C  0.52249710  0.97993807  0.11636948    -0.02000
C862        C  0.50715516  0.95815311  0.09670826     0.04800
N863        N  0.51719336  0.93166709  0.07592038     0.67300
H864        H  0.47031859  0.94731217  0.07880077     0.16200
H865        H  0.52341444  0.52143667  0.15370363     0.16000
N866        N  0.47638840  0.53650532  0.15744259     0.75100
O867        O  0.52140143  0.90626880  0.09422087    -0.38400
O868        O  0.51686995  0.93137997  0.03883322    -0.38300
O869        O  0.47379249  0.53627634  0.19428685    -0.39000
O870        O  0.47475610  0.56238390  0.13912975    -0.39100
C871        C  0.63373346  0.97273520  0.14934049    -0.11400
C872        C  0.61123426  0.98727423  0.15859667     0.05600
C873        C  0.60821541  0.00039433  0.19667979    -0.06700
C874        C  0.62750316  0.99895919  0.22391331    -0.07400
C875        C  0.65014768  0.98519737  0.21410610    -0.02000
C876        C  0.65309368  0.97182278  0.17630085     0.04800
N877        N  0.67537918  0.95646646  0.16496293     0.67300
H878        H  0.63635473  0.96161719  0.12085487     0.16200
H879        H  0.62490317  0.50957424  0.25270643     0.16000
N880        N  0.58623680  0.01656036  0.20784912     0.75100
O881        O  0.67759663  0.92697113  0.16988893    -0.38400
O882        O  0.69024283  0.97072083  0.14279812    -0.38300
O883        O  0.57233865  0.00422486  0.23318784    -0.39000
O884        O  0.58405804  0.54568641  0.20029888    -0.39100
C885        C  0.82062636  0.73677573  0.45389741    -0.11400
C886        C  0.79879966  0.74455991  0.43406156     0.05600
C887        C  0.77813374  0.75371940  0.45644177    -0.06700
C888        C  0.77920991  0.75310023  0.49741561    -0.07400
C889        C  0.80066055  0.74410065  0.51735408    -0.02000
C890        C  0.82177986  0.73664211  0.49513563     0.04800
N891        N  0.84426977  0.72789575  0.51374844     0.67300
H892        H  0.83683365  0.73003053  0.43734298     0.16200
H893        H  0.76292325  0.75985549  0.51378181     0.16000
N894        N  0.75595532  0.76425785  0.43821639     0.75100
O895        O  0.84884781  0.69899308  0.51977265    -0.38400
O896        O  0.86136982  0.74792633  0.51628143    -0.38300
O897        O  0.73755145  0.74616264  0.43739225    -0.39000
O898        O  0.75322705  0.79331722  0.43067328    -0.39100
C899        C  0.90747799  0.76540906  0.96206632    -0.11400
C900        C  0.91083747  0.73920925  0.93713018     0.05600
C901        C  0.91225456  0.70856889  0.95325492    -0.06700
C902        C  0.91206752  0.70476245  0.99407528    -0.07400
C903        C  0.91026777  0.73114068  0.01905036    -0.02000
C904        C  0.90696355  0.76149929  0.00292304     0.04800
N905        N  0.90525020  0.78873215  0.02783419     0.67300
H906        H  0.90655177  0.78906723  0.94984002     0.16200
H907        H  0.91503414  0.68139543  0.00637449     0.16000
N908        N  0.91616519  0.68150040  0.92870111     0.75100
O909        O  0.92444208  0.80341712  0.03773888    -0.38400
O910        O  0.88510130  0.79550168  0.04404862    -0.38300
O911        O  0.93770937  0.67157086  0.92293231    -0.39000
O912        O  0.89819813  0.66428144  0.91919688    -0.39100
C913        C  0.86943612  0.76796446  0.79251040    -0.11400
C914        C  0.88643182  0.74322402  0.79568627     0.05600
C915        C  0.88548853  0.71774652  0.76894396    -0.06700
C916        C  0.86790454  0.71773147  0.73877432    -0.07400
C917        C  0.85074852  0.74251664  0.73561072    -0.02000
C918        C  0.85163478  0.76778735  0.76287347     0.04800
N919        N  0.83541271  0.79427000  0.75960936     0.67300
H920        H  0.87025812  0.78779100  0.81281402     0.16200
H921        H  0.86718680  0.69789759  0.71849747     0.16000
N922        N  0.90164695  0.69126921  0.77316912     0.75100
O923        O  0.81728781  0.79651104  0.78248262    -0.38400
O924        O  0.84192296  0.81808391  0.73986870    -0.38300
O925        O  0.89806794  0.67141352  0.80022694    -0.39000
O926        O  0.92083512  0.68948532  0.75258689    -0.39100
C927        C  0.10108587  0.74431315  0.95180413    -0.11400
C928        C  0.08930284  0.77158735  0.93756597     0.05600
C929        C  0.08105970  0.79479978  0.96444712    -0.06700
C930        C  0.08233988  0.78892574  0.00481335    -0.07400
C931        C  0.09222593  0.76047153  0.01885188    -0.02000
C932        C  0.10268469  0.73872577  0.99228912     0.04800
N933        N  0.11282344  0.70953698  0.00597579     0.67300
H934        H  0.10754189  0.72633840  0.93148012     0.16200
H935        H  0.07434004  0.80580418  0.02519141     0.16000
N936        N  0.07064929  0.82396029  0.95107959     0.75100
O937        O  0.09905314  0.68589664  0.01108891    -0.38400
O938        O  0.13467889  0.70872156  0.01814659    -0.38300
O939        O  0.04785751  0.82857766  0.95414838    -0.39000
O940        O  0.08458337  0.84706832  0.94384577    -0.39100
C941        C  0.00920915  0.79776718  0.85081819    -0.11400
C942        C  0.02432418  0.77369846  0.83581240     0.05600
C943        C  0.01343139  0.74689213  0.81802575    -0.06700
C944        C  0.98783617  0.74346839  0.81850715    -0.07400
C945        C  0.97292726  0.76632518  0.83664216    -0.02000
C946        C  0.98370506  0.79433270  0.85128774     0.04800
N947        N  0.96900478  0.81891938  0.86812228     0.67300
H948        H  0.01736787  0.81863898  0.86422037     0.16200
H949        H  0.97972211  0.72174289  0.80732945     0.16000
N950        N  0.02813300  0.72148996  0.80318646     0.75100
O951        O  0.96712534  0.82104256  0.90499840    -0.38400
O952        O  0.96246267  0.84196857  0.84700950    -0.38300
O953        O  0.03335701  0.69849647  0.82530823    -0.39000
O954        O  0.03146629  0.71890113  0.76662343    -0.39100
C955        C  0.18067447  0.75688065  0.45932131    -0.11400
C956        C  0.20284551  0.75232250  0.43903172     0.05600
C957        C  0.22449922  0.74692698  0.46091433    -0.06700
C958        C  0.22379109  0.74770027  0.50185909    -0.07400
C959        C  0.20186084  0.75342765  0.52226988    -0.02000
C960        C  0.17996841  0.75737957  0.50054121     0.04800
N961        N  0.15693976  0.76222672  0.51962616     0.67300
H962        H  0.16376981  0.76066908  0.44313483     0.16200
H963        H  0.24079939  0.74385326  0.51775131     0.16000
N964        N  0.24742048  0.74024473  0.44224456     0.75100
O965        O  0.14913940  0.79008299  0.52491673    -0.38400
O966        O  0.14242619  0.73918304  0.52355990    -0.38300
O967        O  0.26385760  0.76126640  0.44160530    -0.39000
O968        O  0.25304935  0.71188575  0.43448254    -0.39100
C969        C  0.10865147  0.75318914  0.76020465    -0.11400
C970        C  0.11334153  0.77052738  0.79484058     0.05600
C971        C  0.13665573  0.78500589  0.79927637    -0.06700
C972        C  0.15455546  0.78097244  0.77032981    -0.07400
C973        C  0.14975893  0.76385651  0.73583727    -0.02000
C974        C  0.12636409  0.75021379  0.73060804     0.04800
N975        N  0.12044667  0.73255221  0.69598527     0.67300
H976        H  0.09121058  0.74124880  0.75614993     0.16200
H977        H  0.17224030  0.79234607  0.77443208     0.16000
N978        N  0.14227900  0.80515960  0.83192609     0.75100
O979        O  0.12398047  0.70299464  0.69534545    -0.38400
O980        O  0.10735836  0.74514885  0.66969589    -0.38300
O981        O  0.15896077  0.79709083  0.85564892    -0.39000
O982        O  0.13511017  0.83360082  0.83150256    -0.39100
C983        C  0.42226859  0.55209495  0.95584749    -0.11400
C984        C  0.41353148  0.52824623  0.93066109     0.05600
C985        C  0.40207144  0.50134300  0.94704720    -0.06700
C986        C  0.40126428  0.49773730  0.98806063    -0.07400
C987        C  0.41165829  0.52062271  0.01298347    -0.02000
C988        C  0.42144135  0.54849367  0.99662649     0.04800
N989        N  0.43153072  0.57276490  0.02112593     0.67300
H990        H  0.43086208  0.57307961  0.94367596     0.16200
H991        H  0.39392113  0.47604183  0.00039688     0.16000
N992        N  0.39314849  0.47629974  0.92257675     0.75100
O993        O  0.45442391  0.07407315  0.02634909    -0.38400
O994        O  0.41837798  0.59619199  0.03060993    -0.38300
O995        O  0.40658006  0.95250119  0.91594247    -0.39000
O996        O  0.37057808  0.47496694  0.91452079    -0.39100
C997        C  0.27636373  0.50544192  0.49396932    -0.11400
C998        C  0.29926868  0.50709470  0.51274086     0.05600
C999        C  0.32066932  0.00705432  0.48930458    -0.06700
C1000       C  0.31866057  0.00579797  0.44813521    -0.07400
C1001       C  0.29564025  0.50456706  0.42949661    -0.02000
C1002       C  0.27431684  0.50412506  0.45314397     0.04800
N1003       N  0.25028381  0.50242428  0.43644655     0.67300
H1004       H  0.25958779  0.50509758  0.51111706     0.16200
H1005       H  0.33530052  0.00616010  0.43066276     0.16000
N1006       N  0.34452301  0.00883371  0.50654273     0.75100
O1007       O  0.24002551  0.47578588  0.43273846    -0.38400
O1008       O  0.23754703  0.52732442  0.43379186    -0.38300
O1009       O  0.35756952  0.98415808  0.50842760    -0.39000
O1010       O  0.35440506  0.03558374  0.51145249    -0.39100
C1011       C  0.22550649  0.63855973  0.66165817    -0.11400
C1012       C  0.24109813  0.66486449  0.66651630     0.05600
C1013       C  0.26653223  0.65929541  0.67078812    -0.06700
C1014       C  0.27576673  0.62829082  0.66842898    -0.07400
C1015       C  0.26027453  0.60215728  0.66190730    -0.02000
C1016       C  0.23475705  0.60755774  0.65928724     0.04800
N1017       N  0.21804074  0.58220682  0.65177223     0.67300
H1018       H  0.20589183  0.64204885  0.65837605     0.16200
H1019       H  0.29542753  0.62477479  0.67091262     0.16000
N1020       N  0.28345061  0.68479339  0.67600802     0.75100
O1021       O  0.20626533  0.57027165  0.67998054    -0.38400
O1022       O  0.21100533  0.57700933  0.61699967    -0.38300
O1023       O  0.29229298  0.69008813  0.70967897    -0.39000
O1024       O  0.29347910  0.69700563  0.64628291    -0.39100
C1025       C  0.23994688  0.91138334  0.66214478    -0.11400
C1026       C  0.26531191  0.91424751  0.65603814     0.05600
C1027       C  0.27943322  0.88619232  0.65226564    -0.06700
C1028       C  0.26801891  0.85641854  0.65436835    -0.07400
C1029       C  0.24253453  0.85365908  0.65928751    -0.02000
C1030       C  0.22850384  0.88168232  0.66351049     0.04800
N1031       N  0.20259624  0.88054530  0.66956057     0.67300
H1032       H  0.22866703  0.93246477  0.66522758     0.16200
H1033       H  0.27916692  0.83526628  0.65080210     0.16000
N1034       N  0.30530276  0.88734162  0.64571191     0.75100
O1035       O  0.19434280  0.87889837  0.70412725    -0.38400
O1036       O  0.18835680  0.88819658  0.64189954    -0.38300
O1037       O  0.31978523  0.88225750  0.67395321    -0.39000
O1038       O  0.31338831  0.88660099  0.61097505    -0.39100
C1039       C  0.37293070  0.00166447  0.79055997    -0.11400
C1040       C  0.38960807  0.52685930  0.78769510     0.05600
C1041       C  0.38816893  0.54726901  0.75489309    -0.06700
C1042       C  0.37061542  0.54170454  0.72555665    -0.07400
C1043       C  0.35384675  0.51663320  0.72867876    -0.02000
C1044       C  0.35507944  0.99654181  0.76170033     0.04800
N1045       N  0.33893469  0.97011318  0.76572401     0.67300
H1046       H  0.37398255  0.98543655  0.81520469     0.16200
H1047       H  0.36949976  0.55788106  0.70086829     0.16000
N1048       N  0.40329131  0.57482293  0.75209565     0.75100
O1049       O  0.34521702  0.94351937  0.75193796    -0.38400
O1050       O  0.32131078  0.47169627  0.78966586    -0.38300
O1051       O  0.41977203  0.57598694  0.72612515    -0.39000
O1052       O  0.39653278  0.60010200  0.76882325    -0.39100
C1053       C  0.68211759  0.98662737  0.49276115    -0.11400
C1054       C  0.70453043  0.98548881  0.51320592     0.05600
C1055       C  0.72646218  0.98273341  0.49119115    -0.06700
C1056       C  0.72561197  0.98214691  0.45014415    -0.07400
C1057       C  0.70331497  0.98388838  0.42956739    -0.02000
C1058       C  0.68129685  0.98568199  0.45144227     0.04800
N1059       N  0.65795189  0.98647662  0.43240219     0.67300
H1060       H  0.66501495  0.98834519  0.50891770     0.16200
H1061       H  0.74281544  0.98031398  0.43427258     0.16000
N1062       N  0.74987763  0.97996974  0.50981740     0.75100
O1063       O  0.64689611  0.96080418  0.42544699    -0.38400
O1064       O  0.64632767  0.51231125  0.43043399    -0.38300
O1065       O  0.75954685  0.95293741  0.51340235    -0.39000
O1066       O  0.76296475  0.50435098  0.51427405    -0.39100
C1067       C  0.72416145  0.86847557  0.65675634    -0.11400
C1068       C  0.73980760  0.89498276  0.65746487     0.05600
C1069       C  0.76540529  0.88972748  0.65849692    -0.06700
C1070       C  0.77467522  0.85873018  0.65851814    -0.07400
C1071       C  0.75907767  0.83224250  0.65711609    -0.02000
C1072       C  0.73346236  0.83742370  0.65645258     0.04800
N1073       N  0.71660349  0.81163111  0.65343394     0.67300
H1074       H  0.70443737  0.87178507  0.65560640     0.16200
H1075       H  0.79441814  0.85546340  0.65883606     0.16000
N1076       N  0.78238437  0.91546488  0.65749471     0.75100
O1077       O  0.70618584  0.80151540  0.68401495    -0.38400
O1078       O  0.70820397  0.80399087  0.62015409    -0.38300
O1079       O  0.79306278  0.92391802  0.68872195    -0.39000
O1080       O  0.79046597  0.92489738  0.62481954    -0.39100
C1081       C  0.76432729  0.58681285  0.65293074    -0.11400
C1082       C  0.73881602  0.58378459  0.65577745     0.05600
C1083       C  0.72444359  0.61145381  0.66063885    -0.06700
C1084       C  0.73576138  0.64130055  0.66164633    -0.07400
C1085       C  0.76128807  0.64439890  0.65746569    -0.02000
C1086       C  0.77561057  0.61655432  0.65345178     0.04800
N1087       N  0.80166694  0.61786143  0.64950133     0.67300
H1088       H  0.77570665  0.56587889  0.64920242     0.16200
H1089       H  0.72435608  0.66224868  0.66492782     0.16000
N1090       N  0.69842425  0.60972692  0.66523918     0.75100
O1091       O  0.81494196  0.61510320  0.67969566    -0.38400
O1092       O  0.81117311  0.61443691  0.61594695    -0.38300
O1093       O  0.68935310  0.60999896  0.69934320    -0.39000
O1094       O  0.68470444  0.61489414  0.63605753    -0.39100
C1095       C  0.58896424  0.97397655  0.99069422    -0.11400
C1096       C  0.58689261  0.99942418  0.01706495     0.05600
C1097       C  0.58725118  0.03062202  0.00262537    -0.06700
C1098       C  0.58785919  0.03592867  0.96195630    -0.07400
C1099       C  0.58874094  0.01041038  0.93530176    -0.02000
C1100       C  0.59014530  0.97923857  0.95004629     0.04800
N1101       N  0.59060669  0.95260983  0.92403760     0.67300
H1102       H  0.58847552  0.94988179  0.00161684     0.16200
H1103       H  0.58666566  0.55998741  0.95104864     0.16000
N1104       N  0.58543810  0.05697990  0.02895036     0.75100
O1105       O  0.61080919  0.93944502  0.91614115    -0.38400
O1106       O  0.57083872  0.93863783  0.91557478    -0.38300
O1107       O  0.60427995  0.56652105  0.04700610    -0.39000
O1108       O  0.56461522  0.06753506  0.03853624    -0.39100
C1109       C  0.49079522  0.56438027  0.84628279    -0.11400
C1110       C  0.47784368  0.53912201  0.82919617     0.05600
C1111       C  0.49092698  0.01515516  0.80921599    -0.06700
C1112       C  0.51662067  0.01515913  0.81016731    -0.07400
C1113       C  0.52949514  0.53867808  0.83088609    -0.02000
C1114       C  0.51643969  0.56445665  0.84704307     0.04800
N1115       N  0.52898217  0.59036938  0.86521882     0.67300
H1116       H  0.48087697  0.58338247  0.86090588     0.16200
H1117       H  0.52646613  0.99515620  0.79762016     0.16000
N1118       N  0.47849537  0.98890538  0.79163963     0.75100
O1119       O  0.53600687  0.61324574  0.84426762    -0.38400
O1120       O  0.52815046  0.59368954  0.90206591    -0.38300
O1121       O  0.47760211  0.98658755  0.75468256    -0.39000
O1122       O  0.47278757  0.96536263  0.81248344    -0.39100
C1123       C  0.63903799  0.01972688  0.79849104    -0.11400
C1124       C  0.61522133  0.00794001  0.79286131     0.05600
C1125       C  0.60976869  0.99206218  0.75715830    -0.06700
C1126       C  0.62787305  0.98868370  0.72816974    -0.07400
C1127       C  0.65166326  0.00046428  0.73385987    -0.02000
C1128       C  0.65712624  0.01632360  0.76952107     0.04800
N1129       N  0.68050817  0.03070633  0.77601427     0.67300
H1130       H  0.64347789  0.03269091  0.82515779     0.16200
H1131       H  0.62334994  0.97614651  0.70122798     0.16000
N1132       N  0.58627407  0.97807778  0.75034985     0.75100
O1133       O  0.68450673  0.55816623  0.76289875    -0.38400
O1134       O  0.69493870  0.01906025  0.80114821    -0.38300
O1135       O  0.57232317  0.48972030  0.72451861    -0.39000
O1136       O  0.58212773  0.95049127  0.76288397    -0.39100
loop_ 
_geom_bond_atom_site_label_1 
_geom_bond_atom_site_label_2 
_geom_bond_distance 
_geom_bond_site_symmetry_2 
_ccdc_geom_bond_type 
C1            C6   1.414       .  A
C1          C570   1.408       .  A
C1          C556   1.493       .  S
C2            C3   1.401       .  A
C2          C569   1.408       .  A
C2            H7   1.082       .  S
C3            C4   1.401       .  A
C3          C545   1.480       .  S
C4          C573   1.400       .  A
C4            H8   1.085       .  S
C5            C6   1.407       .  A
C5          C572   1.400       .  A
C5          C531   1.485       .  S
C6            H9   1.083       .  S
O10          C13   1.271       .  A
O10         Cd15   2.484       .  S
C11         C486   1.491       .  S
C11          O20   1.263       .  A
C11          O16   1.271       .  A
O12          C18   1.270       .  A
O12        Cd583   2.459   1_545  S
C13         C559   1.488       .  S
C13          O21   1.266       .  A
C14         C500   1.492       .  S
C14          O19   1.269       .  A
C14          O17   1.266       .  A
Cd15         O21   2.455       .  S
Cd15         O20   2.440       .  S
Cd15         O16   2.507       .  S
Cd15         O19   2.494       .  S
Cd15         O17   2.458       .  S
Cd15        O580   2.459       .  S
Cd15        O590   2.457       .  S
C18         C514   1.482       .  S
C18          O22   1.265       .  A
O22        Cd583   2.457   1_545  S
O23          C26   1.268       .  A
O23         Cd28   2.467       .  S
C24         C430   1.487       .  S
C24          O33   1.264       .  A
C24          O29   1.268       .  A
O25          C31   1.270       .  A
O25        Cd596   2.472       .  S
C26         C475   1.479       .  S
C26          O34   1.265       .  A
C27         C447   1.491       .  S
C27          O32   1.269       .  A
C27          O30   1.264       .  A
Cd28         O34   2.453       .  S
Cd28         O33   2.410       .  S
Cd28         O29   2.521       .  S
Cd28         O32   2.520       .  S
Cd28         O30   2.452       .  S
Cd28        O593   2.472   1_545  S
Cd28        O603   2.474   1_545  S
C31         C458   1.491       .  S
C31          O35   1.266       .  A
O35        Cd596   2.474       .  S
C36          C37   1.411       .  A
C36          C41   1.409       .  A
C36         C472   1.486       .  S
C37          C38   1.402       .  A
C37          H42   1.083       .  S
C38          C39   1.400       .  A
C38         C416   1.484       .  S
C39          C40   1.400       .  A
C39          H43   1.084       .  S
C40          C41   1.402       .  A
C40         C542   1.480       .  S
C41          H44   1.083       .  S
O45          C48   1.267       .  A
O45         Cd50   2.498       .  S
C46         C405   1.480       .  S
C46          O55   1.267       .  A
C46          O51   1.267       .  A
O47          C53   1.269       .  A
O47         Cd50   2.510       .  S
C48         C391   1.483       .  S
C48          O56   1.263       .  A
C49         C461   1.490       .  S
C49          O54   1.269       .  A
C49          O52   1.265       .  A
Cd50         O57   2.450       .  S
Cd50         O56   2.411       .  S
Cd50         O55   2.433       .  S
Cd50         O51   2.473       .  S
Cd50         O54   2.497       .  S
Cd50         O52   2.476       .  S
C53         C444   1.493       .  S
C53          O57   1.264       .  A
C58          C59   1.414       .  A
C58          C63   1.410       .  A
C58         C402   1.496       .  S
C59          C60   1.403       .  A
C59          H64   1.083       .  S
C60          C61   1.400       .  A
C60         C374   1.481       .  S
C61          C62   1.399       .  A
C61          H65   1.084       .  S
C62          C63   1.399       .  A
C62         C360   1.480       .  S
C63          H66   1.081       .  S
C67          C68   1.407       .  A
C67          C72   1.404       .  A
C67         C346   1.474       .  S
C68          C69   1.403       .  A
C68          H73   1.084       .  S
C69          C70   1.402       .  A
C69         C377   1.479       .  S
C70          C71   1.400       .  A
C70          H74   1.085       .  S
C71          C72   1.400       .  A
C71         C332   1.473       .  S
C72          H75   1.084       .  S
O76          C79   1.268       .  A
O76         Cd81   2.515       .  S
C77         C349   1.479       .  S
C77          O86   1.265       .  A
C77          O82   1.267       .  A
O78          C84   1.270       .  A
O78         Cd81   2.503       .  S
C79         C321   1.484       .  S
C79          O87   1.263       .  A
C80         C517   1.488       .  S
C80          O85   1.268       .  A
C80          O83   1.263       .  A
Cd81         O88   2.440       .  S
Cd81         O87   2.414       .  S
Cd81         O86   2.461       .  S
Cd81         O82   2.484       .  S
Cd81         O85   2.496       .  S
Cd81         O83   2.453       .  S
C84         C503   1.490       .  S
C84          O88   1.267       .  A
C89          C90   1.412       .  A
C89          C94   1.413       .  A
C89         C304   1.495       .  S
C90          C91   1.405       .  A
C90          H95   1.081       .  S
C91          C92   1.402       .  A
C91         C293   1.481       .  S
C92          C93   1.397       .  A
C92          H96   1.085       .  S
C93          C94   1.399       .  A
C93         C528   1.478       .  S
C94          H97   1.083       .  S
O98         C101   1.268       .  A
O98        Cd103   2.463       .  S
C99         C489   1.491       .  S
C99         O108   1.264       .  A
C99         O104   1.267       .  A
O100        C106   1.269       .  A
O100       Cd103   2.477       .  S
C101        C307   1.484       .  S
C101        O109   1.266       .  A
C102        C276   1.492       .  S
C102        O107   1.268       .  A
C102        O105   1.265       .  A
Cd103       O110   2.466       .  S
Cd103       O109   2.458       .  S
Cd103       O108   2.436       .  S
Cd103       O104   2.523       .  S
Cd103       O675   2.514       .  S
Cd103       O673   2.462       .  S
O105       Cd671   2.462   1_545  S
C106        C262   1.487       .  S
C106        O110   1.264       .  A
O107       Cd671   2.514   1_545  S
O111        C114   1.268       .  A
O111       Cd116   2.479       .  S
C112        C433   1.487       .  S
C112        O121   1.263       .  A
C112        O117   1.269       .  A
O113        C119   1.268       .  A
O113       Cd116   2.503       .  S
C114        C248   1.483       .  S
C114        O122   1.266       .  A
C115        C234   1.485       .  S
C115        O120   1.270       .  A
C115        O118   1.266       .  A
Cd116       O123   2.432       .  S
Cd116       O122   2.453       .  S
Cd116       O121   2.431       .  S
Cd116       O117   2.494       .  S
Cd116       O688   2.470   1_545  S
Cd116       O686   2.453   1_545  S
O118       Cd684   2.453       .  S
C119        C220   1.484       .  S
C119        O123   1.264       .  A
O120       Cd684   2.470       .  S
C124        C125   1.410       .  A
C124        C129   1.410   1_545  A
C124        C251   1.484       .  S
C125        C126   1.403       .  A
C125        H130   1.083       .  S
C126        C127   1.398       .  A
C126        C419   1.478       .  S
C127        C128   1.399   1_545  A
C127        H131   1.085       .  S
C128        C129   1.402       .  A
C128        C290   1.478       .  S
C129        H132   1.084       .  S
O133        C136   1.269       .  A
O133       Cd138   2.480       .  S
C134        C206   1.478       .  S
C134        O143   1.265       .  A
C134        O139   1.269       .  A
O135        C141   1.269       .  A
O135       Cd138   2.465       .  S
C136        C388   1.483       .  S
C136        O144   1.263       .  A
C137        C223   1.487       .  S
C137        O142   1.270       .  A
C137        O140   1.266       .  A
Cd138       O145   2.460       .  S
Cd138       O144   2.426       .  S
Cd138       O143   2.409       .  S
Cd138       O139   2.488       .  S
Cd138       O142   2.492       .  S
Cd138       O140   2.427       .  S
C141        C237   1.485       .  S
C141        O145   1.264       .  A
C146        C147   1.408       .  A
C146        C151   1.407       .  A
C146        C209   1.478       .  S
C147        C148   1.399       .  A
C147        H152   1.084       .  S
C148        C149   1.396       .  A
C148        C363   1.471       .  S
C149        C150   1.398       .  A
C149        H153   1.084       .  S
C150        C151   1.401       .  A
C150        C192   1.478       .  S
C151        H154   1.083       .  S
C155        C156   1.410       .  A
C155        C160   1.412       .  A
C155        C178   1.487       .  S
C156        C157   1.397       .  A
C156        H161   1.082       .  S
C157        C158   1.393       .  A
C157        C335   1.471       .  S
C158        C159   1.400       .  A
C158        H162   1.085       .  S
C159        C160   1.404       .  A
C159        C195   1.483       .  S
C160        H163   1.083       .  S
O164        C167   1.267       .  A
O164       Cd169   2.483       .  S
C165        C181   1.479       .  S
C165        O174   1.265       .  A
C165        O170   1.267       .  A
O166        C172   1.269       .  A
O166       Cd169   2.513       .  S
C167        C318   1.485       .  S
C167        O175   1.264       .  A
C168        C265   1.488       .  S
C168        O173   1.268       .  A
C168        O171   1.264       .  A
Cd169       O176   2.457       .  S
Cd169       O175   2.446       .  S
Cd169       O174   2.418       .  S
Cd169       O170   2.491       .  S
Cd169       O173   2.481       .  S
Cd169       O171   2.461       .  S
C172        C279   1.493       .  S
C172        O176   1.266       .  A
C177        C178   1.406       .  A
C177        C182   1.401       .  A
C177        H184   1.086       .  S
C178        C179   1.414       .  A
C179        C180   1.396       .  A
C179        N186   1.430       .  S
C180        C181   1.402       .  A
C180        H185   1.086       .  S
C181        C182   1.412       .  A
C182        N183   1.428       .  S
N183        O187   1.262       .  A
N183        O188   1.262       .  A
N186        O190   1.262       .  A
N186        O189   1.262       .  A
C191        C192   1.403       .  A
C191        C196   1.402   1_455  A
C191        H198   1.086       .  S
C192        C193   1.410       .  A
C193        C194   1.394   1_455  A
C193        N200   1.430       .  S
C194        C195   1.404       .  A
C194        H199   1.086       .  S
C195        C196   1.413       .  A
C196        N197   1.429       .  S
N197        O201   1.262       .  A
N197        O202   1.262       .  A
N200        O204   1.262       .  A
N200        O203   1.261       .  A
C205        C206   1.405       .  A
C205        C210   1.396       .  A
C205        H212   1.086       .  S
C206        C207   1.412       .  A
C207        C208   1.401       .  A
C207        N214   1.429       .  S
C208        C209   1.404       .  A
C208        H213   1.086       .  S
C209        C210   1.408       .  A
C210        N211   1.429       .  S
N211        O215   1.262       .  A
N211        O216   1.262       .  A
N214        O218   1.262       .  A
N214        O217   1.262       .  A
C219        C220   1.406       .  A
C219        C224   1.401       .  A
C219        H226   1.085       .  S
C220        C221   1.411       .  A
C221        C222   1.401       .  A
C221        N228   1.429       .  S
C222        C223   1.407       .  A
C222        H227   1.085       .  S
C223        C224   1.412       .  A
C224        N225   1.428       .  S
N225        O229   1.262       .  A
N225        O230   1.262       .  A
N228        O232   1.262       .  A
N228        O231   1.262       .  A
C233        C234   1.404       .  A
C233        C238   1.401       .  A
C233        H240   1.086       .  S
C234        C235   1.414       .  A
C235        C236   1.399       .  A
C235        N242   1.429       .  S
C236        C237   1.403       .  A
C236        H241   1.086       .  S
C237        C238   1.416       .  A
C238        N239   1.429       .  S
N239        O243   1.262       .  A
N239        O244   1.262       .  A
N242        O246   1.262       .  A
N242        O245   1.262       .  A
C247        C248   1.405   1_565  A
C247        C252   1.401       .  A
C247        H254   1.086       .  S
C248        C249   1.412       .  A
C249        C250   1.401       .  A
C249        N256   1.429       .  S
C250        C251   1.403       .  A
C250        H255   1.086       .  S
C251        C252   1.412   1_545  A
C252        N253   1.429       .  S
N253        O257   1.262       .  A
N253        O258   1.262       .  A
N256        O260   1.262       .  A
N256        O827   1.262       .  A
O259        N824   1.262       .  A
C261        C262   1.403       .  A
C261        C266   1.401       .  A
C261        H268   1.086       .  S
C262        C263   1.415       .  A
C263        C264   1.402       .  A
C263        N270   1.429       .  S
C264        C265   1.404       .  A
C264        H269   1.086       .  S
C265        C266   1.416       .  A
C266        N267   1.429       .  S
N267        O271   1.262       .  A
N267        O272   1.262       .  A
N270        O274   1.262       .  A
N270        O273   1.262       .  A
C275        C276   1.407       .  A
C275        C280   1.404       .  A
C275        H282   1.085       .  S
C276        C277   1.413       .  A
C277        C278   1.403       .  A
C277        N284   1.428       .  S
C278        C279   1.407       .  A
C278        H283   1.085       .  S
C279        C280   1.413       .  A
C280        N281   1.428       .  S
N281        O285   1.262       .  A
N281        O286   1.262       .  A
N284        O288   1.262       .  A
N284        O287   1.262       .  A
C289        C294   1.398       .  A
C289        C858   1.402       .  A
C289        H296   1.086       .  S
C290        C291   1.410   1_565  A
C290        C857   1.402       .  A
C291        C292   1.403       .  A
C291        N298   1.428       .  S
C292        C861   1.404   1_545  A
C292        H297   1.086       .  S
C293        C294   1.410       .  A
C293        C860   1.404       .  A
C294        N295   1.429       .  S
N295        O299   1.262       .  A
N295        O300   1.262       .  A
N298        O302   1.262       .  A
N298        O301   1.262       .  A
C303        C304   1.406       .  A
C303        C308   1.398       .  A
C303        H310   1.085       .  S
C304        C305   1.417       .  A
C305        C306   1.402       .  A
C305        N312   1.429       .  S
C306        C307   1.404       .  A
C306        H879   1.085       .  S
C307        C308   1.412       .  A
C308        N309   1.429       .  S
N309        O313   1.262       .  A
N309        O314   1.262       .  A
H311        C874   1.085   1_545  S
N312        O884   1.262       .  A
N312        O315   1.262       .  A
O316        N880   1.262       .  A
C317        C318   1.406       .  A
C317        C322   1.404       .  A
C317        H324   1.085       .  S
C318        C319   1.413       .  A
C319        C320   1.396       .  A
C319        N326   1.429       .  S
C320        C321   1.404       .  A
C320        H325   1.086       .  S
C321        C322   1.413       .  A
C322        N323   1.428       .  S
N323        O327   1.262       .  A
N323        O328   1.262       .  A
N326        O330   1.262       .  A
N326        O329   1.262       .  A
C331        C332   1.403       .  A
C331        C336   1.401   1_556  A
C331        H338   1.084       .  S
C332        C333   1.408       .  A
C333        C334   1.399       .  A
C333        N340   1.429       .  S
C334        C335   1.401   1_556  A
C334        H339   1.084   1_556  S
C335        C336   1.406       .  A
C336        N337   1.429       .  S
N337        O341   1.262       .  A
N337        O342   1.262       .  A
N340        O344   1.262       .  A
N340        O343   1.262       .  A
C345        C346   1.399       .  A
C345        C350   1.399       .  A
C345        H352   1.084       .  S
C346        C347   1.407       .  A
C347        C348   1.404       .  A
C347        N354   1.429       .  S
C348        C349   1.406       .  A
C348        H353   1.083       .  S
C349        C350   1.412       .  A
C350        N351   1.429       .  S
N351        O355   1.262       .  A
N351        O356   1.262       .  A
N354        O358   1.261       .  A
N354        O357   1.262       .  A
C359        C360   1.404       .  A
C359        C364   1.401       .  A
C359        H366   1.083       .  S
C360        C361   1.411       .  A
C361        C362   1.398   1_556  A
C361        N368   1.430       .  S
C362        C363   1.400       .  A
C362        H367   1.084       .  S
C363        C364   1.406   1_554  A
C364        N365   1.428   1_556  S
N365        O369   1.262       .  A
N365        O370   1.262       .  A
N368        O372   1.262       .  A
N368        O371   1.262       .  A
C373        C374   1.402       .  A
C373        C378   1.398   1_455  A
C373        H380   1.086       .  S
C374        C375   1.412       .  A
C375        C376   1.403   1_455  A
C375        N382   1.429       .  S
C376        C377   1.402       .  A
C376        H381   1.086       .  S
C377        C378   1.410       .  A
C378        N379   1.429       .  S
N379        O383   1.262       .  A
N379        O384   1.262       .  A
N382        O386   1.262       .  A
N382        O385   1.262       .  A
C387        C388   1.405       .  A
C387        C392   1.403       .  A
C387        H394   1.085       .  S
C388        C389   1.414       .  A
C389        C390   1.394       .  A
C389        N396   1.430       .  S
C390        C391   1.404       .  A
C390        H395   1.085       .  S
C391        C392   1.413       .  A
C392        N393   1.428       .  S
N393        O397   1.262       .  A
N393        O398   1.262       .  A
N396        O400   1.262       .  A
N396        O399   1.262       .  A
C401        C402   1.408       .  A
C401        C406   1.401       .  A
C401        H408   1.085       .  S
C402        C403   1.419       .  A
C403        C404   1.397       .  A
C403        N410   1.430       .  S
C404        C405   1.400       .  A
C404        H409   1.086       .  S
C405        C406   1.411       .  A
C406        N407   1.429       .  S
N407        O411   1.262       .  A
N407        O412   1.262       .  A
N410        O414   1.262       .  A
N410        O413   1.263       .  A
C415        C416   1.403       .  A
C415        C420   1.397       .  A
C415        H422   1.086       .  S
C416        C417   1.413       .  A
C417        C418   1.405   1_545  A
C417        N424   1.429   1_545  S
C418        C419   1.403   1_566  A
C418        H423   1.085   1_556  S
C419        C420   1.408   1_554  A
C420        N421   1.429   1_556  S
N421        O993   1.262       .  A
N421        O426   1.262       .  A
N424        O428   1.262       .  A
N424        O995   1.262       .  A
O425        N989   1.262       .  A
O427        N992   1.262       .  A
C429        C430   1.404       .  A
C429        C434   1.394       .  A
C429        H436   1.085       .  S
C430        C999   1.414       .  A
C431        C432   1.406       .  A
C431        C998   1.414       .  A
C431        N438   1.428       .  S
C432       C1001   1.407       .  A
C432        H437   1.085       .  S
C433        C434   1.415       .  A
C433       C1000   1.407       .  A
C434        N435   1.429       .  S
N435        O439   1.262   1_545  A
N435        O440   1.262       .  A
N438        O442   1.262       .  A
N438        O441   1.262       .  A
C443        C444   1.408       .  A
C443        C448   1.403       .  A
C443        H450   1.085       .  S
C444        C445   1.414       .  A
C445        C446   1.403       .  A
C445        N452   1.429       .  S
C446        C447   1.407       .  A
C446        H451   1.085       .  S
C447        C448   1.412       .  A
C448        N449   1.428       .  S
N449        O453   1.262       .  A
N449        O454   1.262       .  A
N452        O456   1.262       .  A
N452        O455   1.262       .  A
C457        C458   1.404       .  A
C457        C462   1.401       .  A
C457        H464   1.086       .  S
C458        C459   1.417       .  A
C459        C460   1.405       .  A
C459        N466   1.429       .  S
C460        C461   1.405       .  A
C460        H465   1.086       .  S
C461        C462   1.414       .  A
C462        N463   1.428       .  S
N463        O467   1.262       .  A
N463        O468   1.262       .  A
N466        O470   1.262       .  A
N466        O469   1.262       .  A
C471        C476   1.398       .  A
C471       C1040   1.404       .  A
C471        H478   1.086       .  S
C472        C473   1.414       .  A
C472       C1039   1.404       .  A
C473        C474   1.402       .  A
C473        N480   1.430       .  S
C474        C475   1.403       .  A
C474        H479   1.086       .  S
C475       C1044   1.411   1_545  A
C476       C1043   1.411       .  A
C476        N477   1.429       .  S
N477        O481   1.262       .  A
N477       O1050   1.262       .  A
N480        O484   1.262       .  A
N480        O483   1.262       .  A
O482       N1045   1.262       .  A
C485        C486   1.406       .  A
C485        C490   1.407       .  A
C485        H492   1.085       .  S
C486        C487   1.416       .  A
C487        C488   1.397       .  A
C487        N494   1.429       .  S
C488        C489   1.404       .  A
C488        H493   1.085       .  S
C489        C490   1.415       .  A
C490        N491   1.428       .  S
N491        O495   1.262       .  A
N491       O1064   1.262       .  A
N494       O1066   1.262       .  A
N494        O497   1.262       .  A
O496       N1059   1.262   1_545  A
O498       N1062   1.262   1_545  A
C499        C500   1.408       .  A
C499        C504   1.404       .  A
C499        H506   1.085       .  S
C500        C501   1.413       .  A
C501        C502   1.401       .  A
C501        N508   1.428       .  S
C502        C503   1.406       .  A
C502        H507   1.085       .  S
C503        C504   1.413       .  A
C504        N505   1.429       .  S
N505        O509   1.262       .  A
N505        O510   1.262       .  A
N508        O512   1.262       .  A
N508        O511   1.262       .  A
C513        C514   1.400       .  A
C513        C518   1.398       .  A
C513        H520   1.086       .  S
C514        C515   1.414       .  A
C515        C516   1.403       .  A
C515        N522   1.429       .  S
C516        C517   1.405       .  A
C516        H521   1.085       .  S
C517        C518   1.416       .  A
C518        N519   1.428       .  S
N519        O523   1.262       .  A
N519        O524   1.262       .  A
N522        O526   1.262       .  A
N522        O525   1.262       .  A
C527        C528   1.401   1_556  A
C527        C532   1.403       .  A
C527        H534   1.084   1_556  S
C528        C529   1.407       .  A
C529        C530   1.403   1_554  A
C529        N536   1.429       .  S
C530        C531   1.406       .  A
C530       H1103   1.084       .  S
C531        C532   1.411       .  A
C532        N533   1.428       .  S
N533        O537   1.262       .  A
N533        O538   1.262       .  A
H535       C1098   1.084       .  S
N536        O540   1.262       .  A
N536       O1107   1.262       .  A
O539       N1104   1.262       .  A
C541        C542   1.403       .  A
C541        C546   1.398       .  A
C541        H548   1.086       .  S
C542       C1111   1.410       .  A
C543        C544   1.401       .  A
C543       C1110   1.410       .  A
C543        N550   1.428       .  S
C544       C1113   1.404       .  A
C544        H549   1.086       .  S
C545        C546   1.409       .  A
C545       C1112   1.404       .  A
C546        N547   1.429       .  S
N547        O551   1.262       .  A
N547        O552   1.262       .  A
N550        O554   1.262       .  A
N550        O553   1.262       .  A
C555        C556   1.404       .  A
C555        C560   1.402       .  A
C555        H562   1.085       .  S
C556        C557   1.417       .  A
C557        C558   1.403       .  A
C557        N564   1.429       .  S
C558        C559   1.403       .  A
C558        H563   1.085       .  S
C559        C560   1.415       .  A
C560        N561   1.429       .  S
N561       O1133   1.262       .  A
N561        O566   1.262       .  A
N564        O568   1.262       .  A
N564       O1135   1.262       .  A
O565       N1129   1.262       .  A
O567       N1132   1.262       .  A
C569        C574   1.414       .  A
C569       C1124   1.493       .  S
C570        C571   1.401       .  A
C570        H575   1.082       .  S
C571        C572   1.401       .  A
C571       C1113   1.480       .  S
C572        H576   1.085       .  S
C573        C574   1.407       .  A
C573       C1099   1.485       .  S
C574        H577   1.083   1_545  S
O578        C581   1.271       .  A
O578       Cd583   2.484       .  S
C579       C1054   1.491       .  S
C579        O588   1.263       .  A
C579        O584   1.271       .  A
O580        C586   1.270       .  A
C581       C1127   1.488   1_565  S
C581        O589   1.266       .  A
C582       C1068   1.492       .  S
C582        O587   1.269       .  A
C582        O585   1.266       .  A
Cd583       O589   2.455       .  S
Cd583       O588   2.440       .  S
Cd583       O584   2.507       .  S
Cd583       O587   2.494       .  S
Cd583       O585   2.458       .  S
C586       C1082   1.482       .  S
C586        O590   1.265       .  A
O591        C594   1.268       .  A
O591       Cd596   2.467       .  S
C592        C998   1.487       .  S
C592        O601   1.264       .  A
C592        O597   1.268       .  A
O593        C599   1.270       .  A
C594       C1043   1.479       .  S
C594        O602   1.265       .  A
C595       C1015   1.491       .  S
C595        O600   1.269       .  A
C595        O598   1.264       .  A
Cd596       O602   2.453       .  S
Cd596       O601   2.410       .  S
Cd596       O597   2.521       .  S
Cd596       O600   2.520       .  S
Cd596       O598   2.452       .  S
C599       C1026   1.491       .  S
C599        O603   1.266       .  A
C604        C605   1.411       .  A
C604        C609   1.409       .  A
C604       C1040   1.486       .  S
C605        C606   1.402       .  A
C605        H610   1.083       .  S
C606        C607   1.400       .  A
C606        C984   1.484       .  S
C607        C608   1.400       .  A
C607        H611   1.084       .  S
C608        C609   1.402       .  A
C608       C1110   1.480       .  S
C609        H612   1.083       .  S
O613        C616   1.267       .  A
O613       Cd618   2.498       .  S
C614        C973   1.480       .  S
C614        O623   1.267       .  A
C614        O619   1.267       .  A
O615        C621   1.269       .  A
O615       Cd618   2.510       .  S
C616        C959   1.483       .  S
C616        O624   1.263       .  A
C617       C1029   1.490       .  S
C617        O622   1.269       .  A
C617        O620   1.265       .  A
Cd618       O625   2.450       .  S
Cd618       O624   2.411       .  S
Cd618       O623   2.433       .  S
Cd618       O619   2.473       .  S
Cd618       O622   2.497       .  S
Cd618       O620   2.476       .  S
C621       C1012   1.493       .  S
C621        O625   1.264       .  A
C626        C627   1.414       .  A
C626        C631   1.410       .  A
C626        C970   1.496       .  S
C627        C628   1.403       .  A
C627        H632   1.083       .  S
C628        C629   1.400       .  A
C628        C942   1.481       .  S
C629        C630   1.399       .  A
C629        H633   1.084       .  S
C630        C631   1.399       .  A
C630        C928   1.480       .  S
C631        H634   1.081       .  S
C635        C636   1.407       .  A
C635        C640   1.404       .  A
C635        C914   1.474       .  S
C636        C637   1.403       .  A
C636        H641   1.084       .  S
C637        C638   1.402       .  A
C637        C945   1.479       .  S
C638        C639   1.400       .  A
C638        H642   1.085       .  S
C639        C640   1.400       .  A
C639        C900   1.473       .  S
C640        H643   1.084       .  S
O644        C647   1.268       .  A
O644       Cd649   2.515       .  S
C645        C917   1.479       .  S
C645        O654   1.265       .  A
C645        O650   1.267       .  A
O646        C652   1.270       .  A
O646       Cd649   2.503       .  S
C647        C889   1.484       .  S
C647        O655   1.263       .  A
C648       C1085   1.488       .  S
C648        O653   1.268       .  A
C648        O651   1.263       .  A
Cd649       O656   2.440       .  S
Cd649       O655   2.414       .  S
Cd649       O654   2.461       .  S
Cd649       O650   2.484       .  S
Cd649       O653   2.496       .  S
Cd649       O651   2.453       .  S
C652       C1071   1.490       .  S
C652        O656   1.267       .  A
C657        C658   1.412       .  A
C657        C662   1.413       .  A
C657        C872   1.495       .  S
C658        C659   1.405       .  A
C658        H663   1.081       .  S
C659        C660   1.402       .  A
C659        C861   1.481       .  S
C660        C661   1.397       .  A
C660        H664   1.085       .  S
C661        C662   1.399       .  A
C661       C1096   1.478       .  S
C662        H665   1.083       .  S
O666        C669   1.268       .  A
O666       Cd671   2.463       .  S
C667       C1057   1.491       .  S
C667        O676   1.264       .  A
C667        O672   1.267       .  A
O668        C674   1.269       .  A
O668       Cd671   2.477       .  S
C669        C875   1.484       .  S
C669        O677   1.266       .  A
C670        C844   1.492       .  S
C670        O675   1.268       .  A
C670        O673   1.265       .  A
Cd671       O678   2.466       .  S
Cd671       O677   2.458       .  S
Cd671       O676   2.436       .  S
Cd671       O672   2.523       .  S
C674        C830   1.487       .  S
C674        O678   1.264       .  A
O679        C682   1.268       .  A
O679       Cd684   2.479       .  S
C680       C1001   1.487       .  S
C680        O689   1.263       .  A
C680        O685   1.269       .  A
O681        C687   1.268       .  A
O681       Cd684   2.503       .  S
C682        C816   1.483       .  S
C682        O690   1.266       .  A
C683        C802   1.485       .  S
C683        O688   1.270       .  A
C683        O686   1.266       .  A
Cd684       O691   2.432       .  S
Cd684       O690   2.453       .  S
Cd684       O689   2.431       .  S
Cd684       O685   2.494       .  S
C687        C788   1.484       .  S
C687        O691   1.264       .  A
C692        C693   1.410       .  A
C692        C697   1.410       .  A
C692        C819   1.484       .  S
C693        C694   1.403       .  A
C693        H698   1.083       .  S
C694        C695   1.398       .  A
C694        C987   1.478       .  S
C695        C696   1.399       .  A
C695        H699   1.085       .  S
C696        C697   1.402       .  A
C696        C858   1.478       .  S
C697        H700   1.084       .  S
O701        C704   1.269       .  A
O701       Cd706   2.480       .  S
C702        C774   1.478       .  S
C702        O711   1.265       .  A
C702        O707   1.269       .  A
O703        C709   1.269       .  A
O703       Cd706   2.465       .  S
C704        C956   1.483       .  S
C704        O712   1.263       .  A
C705        C791   1.487       .  S
C705        O710   1.270       .  A
C705        O708   1.266       .  A
Cd706       O713   2.460       .  S
Cd706       O712   2.426       .  S
Cd706       O711   2.409       .  S
Cd706       O707   2.488       .  S
Cd706       O710   2.492       .  S
Cd706       O708   2.427       .  S
C709        C805   1.485       .  S
C709        O713   1.264       .  A
C714        C715   1.408       .  A
C714        C719   1.407       .  A
C714        C777   1.478       .  S
C715        C716   1.399       .  A
C715        H720   1.084       .  S
C716        C717   1.396       .  A
C716        C931   1.471       .  S
C717        C718   1.398       .  A
C717        H721   1.084       .  S
C718        C719   1.401       .  A
C718        C760   1.478       .  S
C719        H722   1.083       .  S
C723        C724   1.410       .  A
C723        C728   1.412       .  A
C723        C746   1.487       .  S
C724        C725   1.397       .  A
C724        H729   1.082       .  S
C725        C726   1.393       .  A
C725        C903   1.471       .  S
C726        C727   1.400       .  A
C726        H730   1.085       .  S
C727        C728   1.404       .  A
C727        C763   1.483       .  S
C728        H731   1.083       .  S
O732        C735   1.267       .  A
O732       Cd737   2.483       .  S
C733        C749   1.479       .  S
C733        O742   1.265       .  A
C733        O738   1.267       .  A
O734        C740   1.269       .  A
O734       Cd737   2.513       .  S
C735        C886   1.485       .  S
C735        O743   1.264       .  A
C736        C833   1.488       .  S
C736        O741   1.268       .  A
C736        O739   1.264       .  A
Cd737       O744   2.457       .  S
Cd737       O743   2.446       .  S
Cd737       O742   2.418       .  S
Cd737       O738   2.491       .  S
Cd737       O741   2.481       .  S
Cd737       O739   2.461       .  S
C740        C847   1.493       .  S
C740        O744   1.266       .  A
C745        C746   1.406       .  A
C745        C750   1.401       .  A
C745        H752   1.086       .  S
C746        C747   1.414       .  A
C747        C748   1.396       .  A
C747        N754   1.430       .  S
C748        C749   1.402       .  A
C748        H753   1.086       .  S
C749        C750   1.412       .  A
C750        N751   1.428       .  S
N751        O755   1.262       .  A
N751        O756   1.262       .  A
N754        O758   1.262       .  A
N754        O757   1.262       .  A
C759        C760   1.403       .  A
C759        C764   1.402   1_455  A
C759        H766   1.086       .  S
C760        C761   1.410       .  A
C761        C762   1.394   1_455  A
C761        N768   1.430       .  S
C762        C763   1.404       .  A
C762        H767   1.086       .  S
C763        C764   1.413       .  A
C764        N765   1.429       .  S
N765        O769   1.262       .  A
N765        O770   1.262       .  A
N768        O772   1.262       .  A
N768        O771   1.261       .  A
C773        C774   1.405       .  A
C773        C778   1.396       .  A
C773        H780   1.086       .  S
C774        C775   1.412       .  A
C775        C776   1.401       .  A
C775        N782   1.429       .  S
C776        C777   1.404       .  A
C776        H781   1.086       .  S
C777        C778   1.408       .  A
C778        N779   1.429       .  S
N779        O783   1.262       .  A
N779        O784   1.262       .  A
N782        O786   1.262       .  A
N782        O785   1.262       .  A
C787        C788   1.406       .  A
C787        C792   1.401       .  A
C787        H794   1.085       .  S
C788        C789   1.411       .  A
C789        C790   1.401       .  A
C789        N796   1.429       .  S
C790        C791   1.407       .  A
C790        H795   1.085       .  S
C791        C792   1.412       .  A
C792        N793   1.428       .  S
N793        O797   1.262       .  A
N793        O798   1.262       .  A
N796        O800   1.262       .  A
N796        O799   1.262       .  A
C801        C802   1.404       .  A
C801        C806   1.401       .  A
C801        H808   1.086       .  S
C802        C803   1.414       .  A
C803        C804   1.399       .  A
C803        N810   1.429       .  S
C804        C805   1.403       .  A
C804        H809   1.086       .  S
C805        C806   1.416       .  A
C806        N807   1.429       .  S
N807        O811   1.262       .  A
N807        O812   1.262       .  A
N810        O814   1.262       .  A
N810        O813   1.262       .  A
C815        C816   1.405       .  A
C815        C820   1.401       .  A
C815        H822   1.086       .  S
C816        C817   1.412       .  A
C817        C818   1.401       .  A
C817        N824   1.429       .  S
C818        C819   1.403       .  A
C818        H823   1.086       .  S
C819        C820   1.412       .  A
C820        N821   1.429       .  S
N821        O825   1.262       .  A
N821        O826   1.262       .  A
N824        O828   1.262       .  A
C829        C830   1.403       .  A
C829        C834   1.401       .  A
C829        H836   1.086       .  S
C830        C831   1.415       .  A
C831        C832   1.402       .  A
C831        N838   1.429       .  S
C832        C833   1.404       .  A
C832        H837   1.086       .  S
C833        C834   1.416       .  A
C834        N835   1.429       .  S
N835        O839   1.262       .  A
N835        O840   1.262       .  A
N838        O842   1.262       .  A
N838        O841   1.262       .  A
C843        C844   1.407       .  A
C843        C848   1.404       .  A
C843        H850   1.085       .  S
C844        C845   1.413       .  A
C845        C846   1.403       .  A
C845        N852   1.428       .  S
C846        C847   1.407       .  A
C846        H851   1.085       .  S
C847        C848   1.413       .  A
C848        N849   1.428       .  S
N849        O853   1.262       .  A
N849        O854   1.262       .  A
N852        O856   1.262       .  A
N852        O855   1.262       .  A
C857        C862   1.398       .  A
C857        H864   1.086       .  S
C858        C859   1.410       .  A
C859        C860   1.403       .  A
C859        N866   1.428       .  S
C860        H865   1.086       .  S
C861        C862   1.410       .  A
C862        N863   1.429       .  S
N863        O867   1.262       .  A
N863        O868   1.262       .  A
N866        O870   1.262       .  A
N866        O869   1.262       .  A
C871        C872   1.406       .  A
C871        C876   1.398       .  A
C871        H878   1.085       .  S
C872        C873   1.417   1_565  A
C873        C874   1.402   1_545  A
C873        N880   1.429       .  S
C874        C875   1.404       .  A
C875        C876   1.412       .  A
C876        N877   1.429       .  S
N877        O881   1.262       .  A
N877        O882   1.262       .  A
N880        O883   1.262       .  A
C885        C886   1.406       .  A
C885        C890   1.404       .  A
C885        H892   1.085       .  S
C886        C887   1.413       .  A
C887        C888   1.396       .  A
C887        N894   1.429       .  S
C888        C889   1.404       .  A
C888        H893   1.086       .  S
C889        C890   1.413       .  A
C890        N891   1.428       .  S
N891        O895   1.262       .  A
N891        O896   1.262       .  A
N894        O898   1.262       .  A
N894        O897   1.262       .  A
C899        C900   1.403       .  A
C899        C904   1.401   1_556  A
C899        H906   1.084       .  S
C900        C901   1.408       .  A
C901        C902   1.399       .  A
C901        N908   1.429       .  S
C902        C903   1.401   1_556  A
C902        H907   1.084   1_556  S
C903        C904   1.406       .  A
C904        N905   1.429       .  S
N905        O909   1.262       .  A
N905        O910   1.262       .  A
N908        O912   1.262       .  A
N908        O911   1.262       .  A
C913        C914   1.399       .  A
C913        C918   1.399       .  A
C913        H920   1.084       .  S
C914        C915   1.407       .  A
C915        C916   1.404       .  A
C915        N922   1.429       .  S
C916        C917   1.406       .  A
C916        H921   1.083       .  S
C917        C918   1.412       .  A
C918        N919   1.429       .  S
N919        O923   1.262       .  A
N919        O924   1.262       .  A
N922        O926   1.261       .  A
N922        O925   1.262       .  A
C927        C928   1.404       .  A
C927        C932   1.401       .  A
C927        H934   1.083       .  S
C928        C929   1.411       .  A
C929        C930   1.398   1_556  A
C929        N936   1.430       .  S
C930        C931   1.400       .  A
C930        H935   1.084       .  S
C931        C932   1.406   1_554  A
C932        N933   1.428   1_556  S
N933        O937   1.262       .  A
N933        O938   1.262       .  A
N936        O940   1.262       .  A
N936        O939   1.262       .  A
C941        C942   1.402       .  A
C941        C946   1.398   1_455  A
C941        H948   1.086       .  S
C942        C943   1.412       .  A
C943        C944   1.403   1_455  A
C943        N950   1.429       .  S
C944        C945   1.402       .  A
C944        H949   1.086       .  S
C945        C946   1.410       .  A
C946        N947   1.429       .  S
N947        O951   1.262       .  A
N947        O952   1.262       .  A
N950        O954   1.262       .  A
N950        O953   1.262       .  A
C955        C956   1.405       .  A
C955        C960   1.403       .  A
C955        H962   1.085       .  S
C956        C957   1.414       .  A
C957        C958   1.394       .  A
C957        N964   1.430       .  S
C958        C959   1.404       .  A
C958        H963   1.085       .  S
C959        C960   1.413       .  A
C960        N961   1.428       .  S
N961        O965   1.262       .  A
N961        O966   1.262       .  A
N964        O968   1.262       .  A
N964        O967   1.262       .  A
C969        C970   1.408       .  A
C969        C974   1.401       .  A
C969        H976   1.085       .  S
C970        C971   1.419       .  A
C971        C972   1.397       .  A
C971        N978   1.430       .  S
C972        C973   1.400       .  A
C972        H977   1.086       .  S
C973        C974   1.411       .  A
C974        N975   1.429       .  S
N975        O979   1.262       .  A
N975        O980   1.262       .  A
N978        O982   1.262       .  A
N978        O981   1.263       .  A
C983        C984   1.403       .  A
C983        C988   1.397       .  A
C983        H990   1.086       .  S
C984        C985   1.413       .  A
C985        C986   1.405       .  A
C985        N992   1.429       .  S
C986        C987   1.403   1_556  A
C986        H991   1.085   1_556  S
C987        C988   1.408   1_554  A
C988        N989   1.429   1_556  S
N989        O994   1.262       .  A
N992        O996   1.262       .  A
C997        C998   1.404       .  A
C997       C1002   1.394       .  A
C997       H1004   1.085       .  S
C999       C1000   1.406       .  A
C999       N1006   1.428       .  S
C1000      H1005   1.085       .  S
C1001      C1002   1.415       .  A
C1002      N1003   1.429       .  S
N1003      O1007   1.262       .  A
N1003      O1008   1.262       .  A
N1006      O1010   1.262       .  A
N1006      O1009   1.262   1_545  A
C1011      C1012   1.408       .  A
C1011      C1016   1.403       .  A
C1011      H1018   1.085       .  S
C1012      C1013   1.414       .  A
C1013      C1014   1.403       .  A
C1013      N1020   1.429       .  S
C1014      C1015   1.407       .  A
C1014      H1019   1.085       .  S
C1015      C1016   1.412       .  A
C1016      N1017   1.428       .  S
N1017      O1021   1.262       .  A
N1017      O1022   1.262       .  A
N1020      O1024   1.262       .  A
N1020      O1023   1.262       .  A
C1025      C1026   1.404       .  A
C1025      C1030   1.401       .  A
C1025      H1032   1.085       .  S
C1026      C1027   1.417       .  A
C1027      C1028   1.405       .  A
C1027      N1034   1.429       .  S
C1028      C1029   1.405       .  A
C1028      H1033   1.086       .  S
C1029      C1030   1.414       .  A
C1030      N1031   1.428       .  S
N1031      O1035   1.262       .  A
N1031      O1036   1.262       .  A
N1034      O1038   1.262       .  A
N1034      O1037   1.262       .  A
C1039      C1044   1.398   1_545  A
C1039      H1046   1.086   1_545  S
C1040      C1041   1.414       .  A
C1041      C1042   1.402       .  A
C1041      N1048   1.430       .  S
C1042      C1043   1.403       .  A
C1042      H1047   1.086       .  S
C1044      N1045   1.429       .  S
N1045      O1049   1.262       .  A
N1048      O1052   1.262       .  A
N1048      O1051   1.262       .  A
C1053      C1054   1.406       .  A
C1053      C1058   1.407       .  A
C1053      H1060   1.085       .  S
C1054      C1055   1.416       .  A
C1055      C1056   1.397       .  A
C1055      N1062   1.429       .  S
C1056      C1057   1.404       .  A
C1056      H1061   1.085       .  S
C1057      C1058   1.415       .  A
C1058      N1059   1.428       .  S
N1059      O1063   1.262       .  A
N1062      O1065   1.262       .  A
C1067      C1068   1.408       .  A
C1067      C1072   1.404       .  A
C1067      H1074   1.085       .  S
C1068      C1069   1.413       .  A
C1069      C1070   1.401       .  A
C1069      N1076   1.428       .  S
C1070      C1071   1.406       .  A
C1070      H1075   1.085       .  S
C1071      C1072   1.413       .  A
C1072      N1073   1.429       .  S
N1073      O1077   1.262       .  A
N1073      O1078   1.262       .  A
N1076      O1080   1.262       .  A
N1076      O1079   1.262       .  A
C1081      C1082   1.400       .  A
C1081      C1086   1.398       .  A
C1081      H1088   1.086       .  S
C1082      C1083   1.414       .  A
C1083      C1084   1.403       .  A
C1083      N1090   1.429       .  S
C1084      C1085   1.405       .  A
C1084      H1089   1.085       .  S
C1085      C1086   1.416       .  A
C1086      N1087   1.428       .  S
N1087      O1091   1.262       .  A
N1087      O1092   1.262       .  A
N1090      O1094   1.262       .  A
N1090      O1093   1.262       .  A
C1095      C1096   1.401   1_556  A
C1095      C1100   1.403       .  A
C1095      H1102   1.084   1_556  S
C1096      C1097   1.407   1_565  A
C1097      C1098   1.403   1_554  A
C1097      N1104   1.429       .  S
C1098      C1099   1.406       .  A
C1099      C1100   1.411   1_545  A
C1100      N1101   1.428       .  S
N1101      O1105   1.262       .  A
N1101      O1106   1.262       .  A
N1104      O1108   1.262       .  A
C1109      C1110   1.403       .  A
C1109      C1114   1.398       .  A
C1109      H1116   1.086       .  S
C1111      C1112   1.401       .  A
C1111      N1118   1.428   1_545  S
C1112      H1117   1.086   1_545  S
C1113      C1114   1.409       .  A
C1114      N1115   1.429       .  S
N1115      O1119   1.262       .  A
N1115      O1120   1.262       .  A
N1118      O1122   1.262       .  A
N1118      O1121   1.262       .  A
C1123      C1124   1.404       .  A
C1123      C1128   1.402       .  A
C1123      H1130   1.085       .  S
C1124      C1125   1.417   1_545  A
C1125      C1126   1.403       .  A
C1125      N1132   1.429       .  S
C1126      C1127   1.403   1_565  A
C1126      H1131   1.085       .  S
C1127      C1128   1.415       .  A
C1128      N1129   1.429       .  S
N1129      O1134   1.262       .  A
N1132      O1136   1.262       .  A
