geometry optimzed in LAMMPS
_audit_creation_date              2020-11-30 
_audit_creation_method            'lammps2cif' 
_symmetry_space_group_name_H-M    'P1' 
_symmetry_Int_Tables_number       1 
_symmetry_cell_setting            triclinic 
loop_ 
_symmetry_equiv_pos_as_xyz 
  x,y,z 
_cell_length_a                    41.97795633 
_cell_length_b                    35.350014369069065 
_cell_length_c                    51.475935002879005 
_cell_angle_alpha                 86.77774525066619 
_cell_angle_beta                  88.67363055814258 
_cell_angle_gamma                 119.17118491510605 
loop_ 
_atom_site_label 
_atom_site_type_symbol 
_atom_site_fract_x 
_atom_site_fract_y 
_atom_site_fract_z 
_atom_site_charge 
Zr1        Zr  0.27631215  0.12821484  0.81063425     2.17500
O2          O  0.23969135  0.11204002  0.77248926    -0.52000
O3          O  0.22274843  0.10188956  0.84017036    -0.75200
O4          O  0.25193674  0.05281178  0.79938070    -0.82000
O5          O  0.29803744  0.24597839  0.80302752    -0.83700
O6          O  0.28759282  0.02699102  0.81654348    -0.79300
O7          O  0.25629958  0.17845581  0.79308968    -0.91000
O8          O  0.23989366  0.11051020  0.88200386    -0.76900
O9          O  0.28829125  0.09540626  0.84816650    -0.86400
O10         O  0.29295543  0.17830548  0.84357623    -0.86100
O11         O  0.32553062  0.11625222  0.79685761    -0.72900
O12         O  0.32903587  0.19339841  0.79254931    -0.85000
Zr13       Zr  0.40885127  0.19933717  0.85053522     2.26400
Zr14       Zr  0.33859905  0.08549797  0.83503995     2.06300
Zr15       Zr  0.34621993  0.24237440  0.82612318     2.10000
Zr16       Zr  0.30578630  0.14591780  0.88069491     1.78800
O17         O  0.37951047  0.30304827  0.79354553    -0.93800
O18         O  0.28821017  0.08026417  0.90882890    -0.41600
O19         O  0.35909195  0.21061301  0.86376406    -0.78300
O20         O  0.35572555  0.13445489  0.86897807    -0.97000
O21         O  0.39189283  0.14952730  0.81758856    -0.90300
O22         O  0.39644845  0.23227102  0.81309608    -0.93100
C23         C  0.21593521  0.09889051  0.86484309     1.00700
C24         C  0.26835971  0.21967175  0.79290097     1.13600
C25         C  0.26038883  0.02264313  0.80376602     1.04400
O26         O  0.31098882  0.02272010  0.86674823    -0.95300
O27         O  0.38661309  0.07946263  0.85643121    -0.91000
O28         O  0.42677426  0.14646079  0.86823196    -0.84100
C29         C  0.41547870  0.10540161  0.86745822     1.11000
O30         O  0.34898923  0.16698453  0.73926270    -0.97200
Zr31       Zr  0.37855354  0.18145024  0.78054198     1.88900
O32         O  0.46225898  0.22289038  0.82043336    -0.73900
O33         O  0.36330729  0.05345216  0.80546159    -0.53100
O34         O  0.39083968  0.13074398  0.75793002    -0.97800
O35         O  0.40439928  0.24721349  0.75111643    -0.55000
O36         O  0.44324757  0.20931927  0.77952073    -0.74400
C37         C  0.46819149  0.22230292  0.79584378     0.98000
O38         O  0.44951489  0.22787520  0.88604784    -0.63200
O39         O  0.32400453  0.28275864  0.85067018    -0.58000
O40         O  0.43021394  0.27269879  0.86515707    -0.94700
O41         O  0.39165297  0.29636345  0.85108936    -0.93100
O42         O  0.28889775  0.19246034  0.90371734    -0.93500
O43         O  0.33170233  0.16548314  0.92292854    -0.92300
C44         C  0.41953225  0.30131633  0.86321549     1.16800
H45         H  0.27366373  0.18479090  0.84773285     0.32700
H46         H  0.36138113  0.12243323  0.88435709     0.43600
H47         H  0.41759078  0.25962159  0.80724317     0.37100
H48         H  0.31845322  0.09665841  0.78312786     0.33600
H49         H  0.27404494  0.08224939  0.92382663     0.25400
H50         H  0.35828371  0.02566029  0.81478585     0.31300
H51         H  0.40654109  0.12444074  0.76942214     0.37200
H52         H  0.30851960  0.22239926  0.89839400     0.31700
H53         H  0.32957932  0.30875437  0.83902439     0.30600
H54         H  0.37810597  0.32765417  0.80068722     0.32300
H55         H  0.42651090  0.26862473  0.75928020     0.31200
H56         H  0.35704118  0.17078406  0.92035043     0.35200
H57         H  0.43718762  0.20649764  0.90119462     0.27900
H58         H  0.21592335  0.08614718  0.77798014     0.32200
H59         H  0.36868506  0.17401400  0.72578709     0.35000
H60         H  0.29701967  0.26508629  0.85158507     0.27600
H61         H  0.47130291  0.22525537  0.88127041     0.40500
H62         H  0.31959065  0.03467068  0.88372371     0.30600
H63         H  0.26979870  0.05642568  0.89924433     0.38200
H64         H  0.38692168  0.25827954  0.75282982     0.30000
H65         H  0.34709377  0.04480435  0.79071270     0.30100
H66         H  0.25150814  0.10192844  0.75985628     0.30400
C67         C  0.11916032  0.29325248  0.75473571     0.85800
C68         C  0.13910269  0.26837346  0.76358353    -0.54400
C69         C  0.17554793  0.28891187  0.75597994     0.08800
C70         C  0.18876183  0.33293204  0.74010175     0.19700
C71         C  0.14113704  0.33848539  0.76449300    -0.55100
C72         C  0.17724633  0.35908394  0.75717280     0.08900
C73         C  0.12713717  0.30032816  0.72488423    -0.54700
C74         C  0.16341287  0.32127923  0.71726020     0.09400
H75         H  0.12558194  0.23746537  0.77514268     0.13900
H76         H  0.21826268  0.35016859  0.73383050    -0.00300
H77         H  0.12913418  0.35295876  0.77668160     0.14200
H78         H  0.10664573  0.28931063  0.71055930     0.14000
C79         C  0.06584250  0.03459754  0.90427483     0.85800
C80         C  0.04274141  0.48866268  0.89773580    -0.54400
C81         C  0.50578244  0.46533916  0.90776747     0.08800
C82         C  0.49666061  0.49337811  0.92508491     0.19700
C83         C  0.04510283  0.05857389  0.89524910    -0.55100
C84         C  0.50860178  0.03672054  0.90493922     0.08900
C85         C  0.06093915  0.03092973  0.93416844    -0.54700
C86         C  0.02533862  0.01055064  0.94375964     0.09400
H87         H  0.05384346  0.47385725  0.88500868     0.13900
H88         H  0.46783696  0.47668344  0.93302060    -0.00300
H89         H  0.05650415  0.08750553  0.88211001     0.14200
H90         H  0.08384613  0.04338909  0.94664864     0.14000
Zr91       Zr  0.48844620  0.05968422  0.52151393     2.17500
O92         O  0.46629283  0.07980485  0.55965346    -0.52000
O93         O  0.46268130  0.09343533  0.49226687    -0.75200
O94         O  0.03540806  0.13137528  0.53788437    -0.82000
O95         O  0.40390724  0.44559803  0.52143650    -0.83700
O96         O  0.09082615  0.14282925  0.52252237    -0.79300
O97         O  0.42219197  0.51346690  0.53410345    -0.91000
O98         O  0.47046387  0.08020278  0.45066421    -0.76900
O99         O  0.03059722  0.08871571  0.48539984    -0.86400
O100        O  0.46429473  0.51605260  0.48465179    -0.86100
O101        O  0.04048729  0.05488571  0.53610270    -0.72900
O102        O  0.47597374  0.48698569  0.53454702    -0.85000
Zr103      Zr  0.04965636  0.47159436  0.47455908     2.26400
Zr104      Zr  0.08241542  0.08332174  0.49858265     2.06300
Zr105      Zr  0.45313884  0.44496129  0.49790414     2.10000
Zr106      Zr  0.50636392  0.04440839  0.44984084     1.78800
O107        O  0.42008286  0.37732590  0.52533947    -0.93800
O108        O  0.04591252  0.11069835  0.42597760    -0.41600
O109        O  0.49682088  0.47388316  0.46161166    -0.78300
O110        O  0.05876460  0.03993264  0.46240717    -0.97000
O111        O  0.07254583  0.01299445  0.51291775    -0.90300
O112        O  0.00461732  0.43983953  0.51030323    -0.96100
C113        C  0.45760403  0.09487360  0.46774168     1.00700
C114        C  0.39777072  0.47310381  0.53237744     1.13600
C115        C  0.07097841  0.15363893  0.53582197     1.04400
O116        O  0.10887475  0.14573651  0.46661533    -0.95300
O117        O  0.13362580  0.08301712  0.47821973    -0.91000
O118        O  0.11417092  0.01590387  0.46384765    -0.84100
C119        C  0.13925524  0.05552577  0.46687414     1.11000
O120        O  0.00857737  0.49126974  0.58953237    -0.97200
Zr121      Zr  0.02856356  0.48181893  0.54668631     1.88900
O122        O  0.07315785  0.43421298  0.50283273    -0.73900
O123        O  0.13544933  0.10700326  0.52494401    -0.53100
O124        O  0.08189604  0.02593210  0.57465154    -0.97800
O125        O  0.49007863  0.41115846  0.57121588    -0.55000
O126        O  0.06473758  0.44613443  0.54457041    -0.74400
C127        C  0.07792476  0.43199945  0.52732618     0.98000
O128        O  0.06724974  0.44879922  0.43545807    -0.63200
O129        O  0.40523691  0.42653671  0.46716839    -0.58000
O130        O  0.00278277  0.40235825  0.45676963    -0.94700
O131        O  0.44596644  0.38600545  0.47402178    -0.93100
O132        O  0.45863608  0.50385788  0.42197831    -0.93500
O133        O  0.01854913  0.02825898  0.40742260    -0.92300
C134        C  0.46638179  0.37648681  0.46035180     1.16800
H135        H  0.44150773  0.51435397  0.48007783     0.32700
H136        H  0.07611364  0.05152855  0.44752479     0.43600
H137        H  0.49722279  0.40853177  0.51632899     0.37100
H138        H  0.05061207  0.07192423  0.55077988     0.33600
H139        H  0.03192853  0.11181384  0.41099988     0.25400
H140        H  0.15059482  0.13870645  0.52059837     0.31300
H141        H  0.07720225  0.49236051  0.58713335     0.37200
H142        H  0.44247397  0.97445070  0.43117581     0.31700
H143        H  0.38590604  0.39688098  0.47336727     0.30600
H144        H  0.39493964  0.36333125  0.51924861     0.32300
H145        H  0.99026443  0.38997044  0.56036709     0.31200
H146        H  0.01751858  0.99967636  0.40979106     0.35200
H147        H  0.07929326  0.47524092  0.42328582     0.27900
H148        H  0.46917069  0.10880550  0.55462824     0.32200
H149        H  0.01325290  0.47253355  0.60209928     0.35000
H150        H  0.39430602  0.44519925  0.47049621     0.27600
H151        H  0.08712887  0.44294595  0.44056596     0.40500
H152        H  0.13305115  0.16567685  0.47303523     0.30600
H153        H  0.04709089  0.13351471  0.43686497     0.38200
H154        H  0.46468095  0.40371918  0.56767292     0.30000
H155        H  0.12587687  0.10406951  0.54313080     0.30100
H156        H  0.48441740  0.08488820  0.57289982     0.30400
C157        C  0.29550299  0.14404924  0.43280708     0.85800
C158        C  0.29747192  0.14546802  0.40294413    -0.54400
C159        C  0.33193387  0.16533687  0.39153030     0.08800
C160        C  0.36203505  0.18185456  0.41113376     0.19700
C161        C  0.31845905  0.12268146  0.44129017    -0.55100
C162        C  0.35289887  0.14251801  0.42992200     0.08900
C163        C  0.31986175  0.19224057  0.43913520    -0.54700
C164        C  0.35496619  0.21179829  0.42780067     0.09400
H165        H  0.27327831  0.13176991  0.39168982     0.13900
H166        H  0.39030325  0.19742441  0.40220121    -0.00300
H167        H  0.31035920  0.09653406  0.45629715     0.14200
H168        H  0.31079919  0.20821038  0.45249468     0.14000
C169        C  0.24120313  0.38579548  0.56644969     0.85800
C170        C  0.21654741  0.33785058  0.55954096    -0.54400
C171        C  0.18112655  0.31857314  0.57021059     0.08800
C172        C  0.17400383  0.34855852  0.58677523     0.19700
C173        C  0.21902667  0.40783638  0.55726206    -0.55100
C174        C  0.18399002  0.38813203  0.56782246     0.08900
C175        C  0.23816396  0.38360908  0.59627528    -0.54700
C176        C  0.20340725  0.36425529  0.60698079     0.09400
H177        H  0.22560397  0.32165805  0.54634621     0.13900
H178        H  0.14560012  0.33286562  0.59551710    -0.00300
H179        H  0.22838583  0.43380443  0.54189869     0.14200
H180        H  0.26182371  0.39452180  0.60797468     0.14000
Zr181      Zr  0.10759588  0.29316938  0.14450346     2.17500
O182        O  0.07770514  0.27947534  0.10333152    -0.52000
O183        O  0.05128092  0.26407776  0.17119281    -0.75200
O184        O  0.08496739  0.21773597  0.13318540    -0.82000
O185        O  0.12705224  0.41126289  0.13961730    -0.83700
O186        O  0.12240315  0.19375035  0.14930941    -0.79300
O187        O  0.08648271  0.34387549  0.12874052    -0.91000
O188        O  0.06572224  0.27788881  0.21318803    -0.76900
O189        O  0.11756932  0.25881741  0.18237255    -0.86400
O190        O  0.12045045  0.34089224  0.17843184    -0.86100
O191        O  0.15886245  0.28375454  0.13277123    -0.72900
O192        O  0.16043103  0.36023267  0.12895109    -0.85000
Zr193      Zr  0.23492109  0.36403784  0.19033534     2.26400
Zr194      Zr  0.16978865  0.25121838  0.17137127     2.06300
Zr195      Zr  0.17376419  0.40678120  0.16366644     2.10000
Zr196      Zr  0.13058075  0.30693521  0.21599423     1.78800
O197        O  0.20503773  0.46984168  0.13239076    -0.93800
O198        O  0.10408041  0.23852774  0.24290692    -0.41600
O199        O  0.18396045  0.37369548  0.20198677    -0.78300
O200        O  0.18203163  0.29734343  0.20635146    -0.97000
O201        O  0.22273107  0.31727174  0.15610090    -0.90300
O202        O  0.22553054  0.39880945  0.15247152    -0.93100
C203        C  0.04289529  0.26406142  0.19530764     1.00700
C204        C  0.09781414  0.38499711  0.12917157     1.13600
C205        C  0.09477680  0.18849119  0.13670791     1.04400
O206        O  0.14017721  0.18908822  0.20340723    -0.95300
O207        O  0.21814301  0.24780920  0.19466740    -0.91000
O208        O  0.25502559  0.31435909  0.20860384    -0.84100
C209        C  0.24583603  0.27425829  0.20674292     1.11000
O210        O  0.18824750  0.34617007  0.07533369    -0.97200
Zr211      Zr  0.21167653  0.35076567  0.11864140     1.88900
O212        O  0.29032936  0.38800883  0.16310578    -0.73900
O213        O  0.19795326  0.21860680  0.14540091    -0.53100
O214        O  0.22154032  0.30014031  0.09397737    -0.97800
O215        O  0.24197959  0.42016600  0.09249915    -0.55000
O216        O  0.27535391  0.37402278  0.12131729    -0.74400
C217        C  0.29832825  0.38665605  0.13908832     0.98000
O218        O  0.27069996  0.39195995  0.22828482    -0.63200
O219        O  0.14752987  0.44081482  0.19032817    -0.58000
O220        O  0.25520761  0.43647824  0.20463170    -0.94700
O221        O  0.21983892  0.46261522  0.18708543    -0.93100
O222        O  0.11582392  0.35448143  0.23985924    -0.93500
O223        O  0.15323356  0.31513401  0.25959495    -0.92300
C224        C  0.24586768  0.46589481  0.20088002     1.16800
H225        H  0.10060850  0.34677771  0.18178359     0.32700
H226        H  0.18686215  0.28484233  0.22189882     0.43600
H227        H  0.24682022  0.42669300  0.14776667     0.37100
H228        H  0.15324615  0.26507556  0.11862465     0.33600
H229        H  0.08414763  0.23826451  0.25372558     0.25400
H230        H  0.18609041  0.18779450  0.15231983     0.31300
H231        H  0.24367933  0.31861377  0.08247209     0.37200
H232        H  0.13753030  0.38368727  0.23664556     0.31700
H233        H  0.15432006  0.46891043  0.18059699     0.30600
H234        H  0.19707414  0.49044923  0.13793467     0.32300
H235        H  0.26396835  0.43909807  0.10173277     0.31200
H236        H  0.18001831  0.33402907  0.25677249     0.35200
H237        H  0.26055382  0.36761356  0.24198839     0.27900
H238        H  0.05274184  0.25488188  0.10751954     0.32200
H239        H  0.20947757  0.35528563  0.06286020     0.35000
H240        H  0.12073617  0.42333369  0.18918856     0.27600
H241        H  0.29538418  0.39674257  0.22330276     0.40500
H242        H  0.14677127  0.16770658  0.19710392     0.30600
H243        H  0.09136369  0.21579906  0.23069372     0.38200
H244        H  0.22560801  0.43268912  0.09470548     0.30000
H245        H  0.18873853  0.21779067  0.12779377     0.30100
H246        H  0.09009559  0.26760184  0.09254454     0.30400
C247        C  0.44717814  0.45326127  0.09743703     0.85800
C248        C  0.46713553  0.42784234  0.10431472    -0.54400
C249        C  0.00309378  0.45256125  0.09368094     0.08800
C250        C  0.01604829  0.99519383  0.07613163     0.19700
C251        C  0.47117124  0.00067687  0.10314821    -0.55100
C252        C  0.00755092  0.02312246  0.09395952     0.08900
C253        C  0.45098269  0.46046414  0.06743568    -0.54700
C254        C  0.98594641  0.48397347  0.05662599     0.09400
H255        H  0.45470425  0.39806578  0.11701372     0.13900
H256        H  0.04473006  0.01178765  0.06791689    -0.00300
H257        H  0.46174911  0.01792668  0.11518356     0.14200
H258        H  0.42798976  0.45131293  0.05527793     0.14000
C259        C  0.39217969  0.19436853  0.23824307     0.85800
C260        C  0.36759831  0.14667649  0.23299124    -0.54400
C261        C  0.33306359  0.12884919  0.24357858     0.08800
C262        C  0.32592732  0.15940148  0.25984784     0.19700
C263        C  0.37082561  0.21745780  0.22960889    -0.55100
C264        C  0.33608912  0.19962631  0.24090424     0.08900
C265        C  0.39066343  0.19309638  0.26815888    -0.54700
C266        C  0.35618963  0.17529345  0.27951828     0.09400
H267        H  0.37579966  0.12754645  0.22172532     0.13900
H268        H  0.29812815  0.14434377  0.26937232    -0.00300
H269        H  0.38230064  0.24525953  0.21533577     0.14200
H270        H  0.41465579  0.20437651  0.27953925     0.14000
C271        C  0.34300488  0.38296575  0.10862569    -0.27000
C272        C  0.33644245  0.40011704  0.13082797    -0.15000
C273        C  0.36620495  0.42975962  0.14423587     0.35600
C274        C  0.40169128  0.44350996  0.13414305    -0.26400
C275        C  0.40832750  0.43121362  0.10984061    -0.15700
C276        C  0.37855813  0.39749905  0.09825083     0.36700
N277        N  0.38429229  0.37803780  0.07610627    -0.89900
H278        H  0.32019142  0.35816766  0.09915386     0.17800
H279        H  0.42413512  0.46470552  0.14533349     0.17800
N280        N  0.36052750  0.44695764  0.16750357    -0.88900
H281        H  0.35942001  0.35414565  0.06985507     0.35100
H282        H  0.39877199  0.36231410  0.08210210     0.40200
H283        H  0.34855679  0.46597715  0.16221409     0.39900
H284        H  0.38545178  0.46784955  0.17514405     0.34800
C285        C  0.05181451  0.14315852  0.10401078    -0.27000
C286        C  0.07374407  0.14617756  0.12490253    -0.15000
C287        C  0.07600166  0.10882335  0.13369308     0.35600
C288        C  0.05630387  0.06983445  0.12180152    -0.26400
C289        C  0.03389434  0.06681250  0.10147961    -0.15700
C290        C  0.03155262  0.10373143  0.09241891     0.36700
N291        N  0.00844609  0.10094870  0.07158562    -0.89900
H292        H  0.05014465  0.17150216  0.09683192     0.17800
H293        H  0.05696883  0.04107569  0.12950304     0.17800
N294        N  0.09702253  0.10956811  0.15539639    -0.88900
H295        H  0.01062184  0.13126309  0.06670457     0.35100
H296        H  0.98135124  0.08039425  0.07840136     0.40200
H297        H  0.11629064  0.10082199  0.14923153     0.39900
H298        H  0.07946334  0.08611446  0.16984643     0.34800
C299        C  0.03965705  0.37470725  0.11067777    -0.27000
C300        C  0.07527804  0.40339009  0.11763000    -0.15000
C301        C  0.08775575  0.44895499  0.11409654     0.35600
C302        C  0.06421921  0.46383753  0.10529541    -0.26400
C303        C  0.02821180  0.43499244  0.09976356    -0.15700
C304        C  0.01634295  0.39000522  0.10160729     0.36700
N305        N  0.48052291  0.35414601  0.09308094    -0.89900
H306        H  0.02941113  0.33994788  0.11259168     0.17800
H307        H  0.07395502  0.49849729  0.10377625     0.17800
N308        N  0.12400485  0.48140376  0.11921988    -0.88900
H309        H  0.46684171  0.33120114  0.10880855     0.35100
H310        H  0.48379136  0.33793471  0.07774232     0.40200
H311        H  0.14282310  0.47649277  0.10833059     0.39900
H312        H  0.12782271  0.47936215  0.13911408     0.34800
C313        C  0.32713403  0.26361534  0.23019276    -0.27000
C314        C  0.31149166  0.21831794  0.23499483    -0.15000
C315        C  0.27331841  0.19236659  0.23314819     0.35600
C316        C  0.25247615  0.21176921  0.22513564    -0.26400
C317        C  0.26855705  0.25680178  0.21879871    -0.15700
C318        C  0.30641241  0.28302375  0.22227220     0.36700
N319        N  0.32509576  0.32930286  0.21728425    -0.89900
H320        H  0.35605350  0.28447347  0.23240490     0.17800
H321        H  0.22344822  0.19102416  0.22321981     0.17800
N322        N  0.25542072  0.14616192  0.23839267    -0.88900
H323        H  0.31389548  0.34217880  0.23008687     0.35100
H324        H  0.32168534  0.33710888  0.19803482     0.40200
H325        H  0.24168739  0.13172816  0.22195137     0.39900
H326        H  0.23576519  0.13762883  0.25369891     0.34800
C327        C  0.27499118  0.04423203  0.19934911    -0.27000
C328        C  0.26683641  0.00598435  0.21436859    -0.15000
C329        C  0.27715587  0.00796230  0.24033761     0.35600
C330        C  0.29655078  0.04872951  0.25052296    -0.26400
C331        C  0.30533298  0.08693482  0.23520720    -0.15700
C332        C  0.29481889  0.08476817  0.20928798     0.36700
N333        N  0.30698136  0.12385402  0.19252586    -0.89900
H334        H  0.26716406  0.04253218  0.17934174     0.17800
H335        H  0.30641988  0.05081181  0.26989858     0.17800
N336        N  0.25817863  0.46975612  0.25627826    -0.88900
H337        H  0.29772428  0.11650705  0.17381479     0.35100
H338        H  0.29522404  0.14138049  0.19984851     0.40200
H339        H  0.22968613  0.45499694  0.25645207     0.39900
H340        H  0.26525140  0.47689001  0.27544236     0.34800
C341        C  0.43802095  0.19719037  0.20353938    -0.27000
C342        C  0.43067727  0.21526703  0.22515889    -0.15000
C343        C  0.45979846  0.25314721  0.23414633     0.35600
C344        C  0.99597549  0.26964426  0.22194109    -0.26400
C345        C  0.00438432  0.24792025  0.20331908    -0.15700
C346        C  0.47381389  0.21100874  0.19399014     0.36700
N347        N  0.48054239  0.18967586  0.17327257    -0.89900
H348        H  0.41608348  0.17214033  0.19374867     0.17800
H349        H  0.01771649  0.29904494  0.22892891     0.17800
N350        N  0.45298297  0.27755348  0.25279569    -0.88900
H351        H  0.45597540  0.16537402  0.16688809     0.35100
H352        H  0.99948415  0.17680817  0.18089480     0.40200
H353        H  0.43774756  0.29028737  0.24389955     0.39900
H354        H  0.47743410  0.30414219  0.25752970     0.34800
C355        C  0.31778518  0.13197209  0.34899723    -0.27000
C356        C  0.33884350  0.16840058  0.36288090    -0.15000
C357        C  0.36559982  0.20705618  0.34921350     0.35600
C358        C  0.37067049  0.20869554  0.32205180    -0.26400
C359        C  0.34944373  0.17230949  0.30817374    -0.15700
C360        C  0.32302104  0.13354480  0.32188652     0.36700
N361        N  0.30244699  0.09516445  0.30856834    -0.89900
H362        H  0.29758417  0.10175010  0.35930905     0.17800
H363        H  0.39104819  0.23878419  0.31170876     0.17800
N364        N  0.38700217  0.24507646  0.36267323    -0.88900
H365        H  0.27468620  0.08491864  0.31204332     0.35100
H366        H  0.30746660  0.07090343  0.31666075     0.40200
H367        H  0.38279917  0.27007708  0.35476280     0.39900
H368        H  0.41455712  0.25431904  0.35912378     0.34800
C369        C  0.19428758  0.11431580  0.44264004    -0.27000
C370        C  0.17784461  0.07335460  0.45671685    -0.15000
C371        C  0.20064286  0.05644990  0.46500567     0.35600
C372        C  0.23835968  0.07965886  0.45778931    -0.26400
C373        C  0.25503504  0.12083869  0.44344313    -0.15700
C374        C  0.23209806  0.13807664  0.43630187     0.36700
N375        N  0.24710307  0.17991275  0.42233095    -0.89900
H376        H  0.17758550  0.12872767  0.43701192     0.17800
H377        H  0.25392653  0.06426460  0.46379264     0.17800
N378        N  0.18711027  0.01675673  0.48139284    -0.88900
H379        H  0.24094961  0.19970665  0.43337032     0.35100
H380        H  0.23417658  0.17614343  0.40479253     0.40200
H381        H  0.16249429  0.50634766  0.48574227     0.39900
H382        H  0.20032923  0.02450028  0.49885657     0.34800
C383        C  0.41415111  0.33382208  0.43382770    -0.27000
C384        C  0.44489180  0.33654844  0.44614126    -0.15000
C385        C  0.44725245  0.29795967  0.45003401     0.35600
C386        C  0.41774521  0.25804772  0.44363611    -0.26400
C387        C  0.38572929  0.25524676  0.43357358    -0.15700
C388        C  0.38490999  0.29410061  0.42762321     0.36700
N389        N  0.35488459  0.29432875  0.41509285    -0.89900
H390        H  0.41184865  0.36291161  0.43033645     0.17800
H391        H  0.41948994  0.22868058  0.44731587     0.17800
N392        N  0.47793522  0.29733040  0.46143101    -0.88900
H393        H  0.33112147  0.27604082  0.42705240     0.35100
H394        H  0.35169585  0.27957695  0.39758019     0.40200
H395        H  0.99852867  0.33181119  0.46453641     0.39900
H396        H  0.99110371  0.29050923  0.44672318     0.34800
C397        C  0.39058449  0.13843867  0.46484989    -0.27000
C398        C  0.38092326  0.13228181  0.43894164    -0.15000
C399        C  0.39813981  0.11693282  0.42217023     0.35600
C400        C  0.42399876  0.10676307  0.43181545    -0.26400
C401        C  0.43343288  0.11173640  0.45807574    -0.15700
C402        C  0.41701783  0.12889213  0.47460189     0.36700
N403        N  0.42681789  0.13627475  0.50114908    -0.89900
H404        H  0.37756692  0.15112653  0.47744448     0.17800
H405        H  0.43598172  0.09369450  0.41862440     0.17800
N406        N  0.38881800  0.10965892  0.39560118    -0.88900
H407        H  0.41137569  0.14783536  0.51067039     0.35100
H408        H  0.45403228  0.16103080  0.50070439     0.40200
H409        H  0.39492883  0.13920878  0.38568716     0.39900
H410        H  0.36070321  0.08854280  0.39533141     0.34800
C411        C  0.30089535  0.45374587  0.54779028    -0.27000
C412        C  0.28204334  0.40892063  0.55663148    -0.15000
C413        C  0.30324672  0.38792011  0.55995176     0.35600
C414        C  0.34097402  0.41064759  0.55305893    -0.26400
C415        C  0.35922210  0.45451430  0.54320945    -0.15700
C416        C  0.33886929  0.47636423  0.54069605     0.36700
N417        N  0.35800562  0.02078047  0.53677162    -0.89900
H418        H  0.28653460  0.47205187  0.54674926     0.17800
H419        H  0.35642522  0.39357528  0.55523657     0.17800
N420        N  0.28652052  0.34327736  0.57017755    -0.88900
H421        H  0.33953049  0.03261270  0.53701043     0.35100
H422        H  0.36664289  0.02306201  0.51724579     0.40200
H423        H  0.27820891  0.34167370  0.58967884     0.39900
H424        H  0.30545930  0.33212379  0.57016130     0.34800
C425        C  0.12505066  0.19721104  0.56108980    -0.27000
C426        C  0.09326244  0.19357980  0.54996215    -0.15000
C427        C  0.08897844  0.23078013  0.54794493     0.35600
C428        C  0.11755433  0.27099011  0.55526995    -0.26400
C429        C  0.15060729  0.27496879  0.56417600    -0.15700
C430        C  0.15356733  0.23717784  0.56808103     0.36700
N431        N  0.18568147  0.23955566  0.57894898    -0.89900
H432        H  0.12840490  0.16871372  0.56325788     0.17800
H433        H  0.11460591  0.29975196  0.55299953     0.17800
N434        N  0.05644979  0.22810178  0.53772952    -0.88900
H435        H  0.18368936  0.20885310  0.58061349     0.35100
H436        H  0.18674303  0.24918443  0.59789616     0.40200
H437        H  0.05584092  0.22084625  0.51827739     0.39900
H438        H  0.05746745  0.25825807  0.53765665     0.34800
C439        C  0.10616871  0.41270540  0.56405481    -0.27000
C440        C  0.10202166  0.41478695  0.53692897    -0.15000
C441        C  0.12387521  0.40476393  0.52021979     0.35600
C442        C  0.15063816  0.39668856  0.53070537    -0.26400
C443        C  0.15582972  0.39739945  0.55752374    -0.15700
C444        C  0.13265799  0.40402707  0.57435909     0.36700
N445        N  0.13669352  0.40328889  0.60191871    -0.89900
H446        H  0.08949067  0.41907826  0.57756547     0.17800
H447        H  0.16737703  0.38941334  0.51779533     0.17800
N448        N  0.11965715  0.40205030  0.49273481    -0.88900
H449        H  0.11185910  0.37942476  0.61101216     0.35100
H450        H  0.14193463  0.43335743  0.60810426     0.40200
H451        H  0.12563488  0.43231884  0.48404430     0.39900
H452        H  0.09264189  0.37921023  0.48967477     0.34800
C453        C  0.48879614  0.00989050  0.98220728    -0.27000
C454        C  0.01498508  0.00210628  0.97228917    -0.15000
C455        C  0.02950414  0.48313703  0.99157265     0.35600
C456        C  0.02019760  0.47862603  0.01838824    -0.26400
C457        C  0.99516293  0.49055978  0.02807017    -0.15700
C458        C  0.47915173  0.00403051  0.00907834     0.36700
N459        N  0.45329997  0.01614803  0.01883508    -0.89900
H460        H  0.47612151  0.02280378  0.96896904     0.17800
H461        H  0.03213295  0.46499512  0.03181196     0.17800
N462        N  0.05500709  0.47019103  0.98219662    -0.88900
H463        H  0.44370880  0.02791003  0.00357466     0.35100
H464        H  0.46717390  0.04188663  0.03054701     0.40200
H465        H  0.04100531  0.44426245  0.97067435     0.39900
H466        H  0.06433518  0.45850125  0.99766599     0.34800
C467        C  0.19975058  0.37505335  0.68025463    -0.27000
C468        C  0.17619106  0.33174353  0.68935985    -0.15000
C469        C  0.16257804  0.29945444  0.67146215     0.35600
C470        C  0.17187500  0.31102090  0.64477748    -0.26400
C471        C  0.19485511  0.35437107  0.63550140    -0.15700
C472        C  0.20916042  0.38687754  0.65342784     0.36700
N473        N  0.23132290  0.43186601  0.64434455    -0.89900
H474        H  0.20985407  0.39986907  0.69403645     0.17800
H475        H  0.16119297  0.28586573  0.63120938     0.17800
N476        N  0.13952972  0.25474821  0.68037829    -0.88900
H477        H  0.25690049  0.43663540  0.63799579     0.35100
H478        H  0.23610341  0.45168873  0.65975774     0.40200
H479        H  0.15213115  0.23720635  0.67438513     0.39900
H480        H  0.11486214  0.24337033  0.67123689     0.34800
C481        C  0.46082536  0.34523549  0.89734215    -0.27000
C482        C  0.44012741  0.34297687  0.87578703    -0.15000
C483        C  0.43886945  0.38081805  0.86664046     0.35600
C484        C  0.45834515  0.41957894  0.87876416    -0.26400
C485        C  0.47945510  0.42189434  0.89979968    -0.15700
C486        C  0.48058594  0.38442731  0.90937936     0.36700
N487        N  0.01160860  0.39171971  0.92449408    -0.89900
H488        H  0.46175510  0.31650644  0.90473424     0.17800
H489        H  0.45856505  0.44870379  0.87072145     0.17800
N490        N  0.41920185  0.38079418  0.84424920    -0.88900
H491        H  0.01258470  0.36275977  0.92706300     0.35100
H492        H  0.00115835  0.39559326  0.94215085     0.40200
H493        H  0.43764557  0.40414381  0.83011773     0.39900
H494        H  0.39997525  0.39002608  0.84970585     0.34800
C495        C  0.16174662  0.04791944  0.89327182    -0.27000
C496        C  0.17788649  0.08250944  0.87413704    -0.15000
C497        C  0.15798696  0.10221233  0.86450311     0.35600
C498        C  0.12217415  0.08726075  0.87456292    -0.26400
C499        C  0.10553363  0.05264029  0.89408973    -0.15700
C500        C  0.12569213  0.03225974  0.90290109     0.36700
N501        N  0.11096826  0.49838724  0.92517762    -0.89900
H502        H  0.17699265  0.03242355  0.90043463     0.17800
H503        H  0.10778297  0.10283660  0.86642147     0.17800
N504        N  0.17444213  0.13772986  0.84468540    -0.88900
H505        H  0.11135849  0.47189073  0.91742849     0.35100
H506        H  0.12781968  0.50723735  0.94090833     0.40200
H507        H  0.19618490  0.16379105  0.85271955     0.39900
H508        H  0.15604458  0.14833923  0.83934923     0.34800
C509        C  0.47278861  0.11499232  0.88701939    -0.27000
C510        C  0.43741110  0.08669926  0.87960375    -0.15000
C511        C  0.42432897  0.04113474  0.88310158     0.35600
C512        C  0.44759910  0.02567493  0.89225659    -0.26400
C513        C  0.48353751  0.05423247  0.89821972    -0.15700
C514        C  0.49564631  0.09931316  0.89639866     0.36700
N515        N  0.53107679  0.12951179  0.90440369    -0.89900
H516        H  0.48325740  0.14979693  0.88515744     0.17800
H517        H  0.93847069  0.99511851  0.89477456     0.17800
N518        N  0.38759900  0.01049480  0.87733099    -0.88900
H519        H  0.52768929  0.14664410  0.91913874     0.35100
H520        H  0.54555422  0.15170816  0.88851748     0.40200
H521        H  0.37001163  0.01299195  0.89097687     0.39900
H522        H  0.38297276  0.97862341  0.87994889     0.34800
C523        C  0.23527159  0.29910695  0.77050014    -0.27000
C524        C  0.20006751  0.27090633  0.76301066    -0.15000
C525        C  0.18883546  0.22621761  0.76271601     0.35600
C526        C  0.21159985  0.21021334  0.77200472    -0.26400
C527        C  0.24624981  0.23818083  0.78089741    -0.15700
C528        C  0.25856753  0.28348643  0.77895220     0.36700
N529        N  0.29476575  0.31411578  0.78542890    -0.89900
H530        H  0.24471832  0.33362825  0.77032751     0.17800
H531        H  0.20183863  0.17559876  0.77236551     0.17800
N532        N  0.15474907  0.19707060  0.75238195    -0.88900
H533        H  0.29274733  0.33209730  0.80019845     0.35100
H534        H  0.30808538  0.33545329  0.76898145     0.40200
H535        H  0.13913822  0.17243108  0.76688274     0.39900
H536        H  0.16019137  0.18284708  0.73684554     0.34800
C537        C  0.03227617  0.24337460  0.80082581    -0.27000
C538        C  0.50624993  0.23786256  0.78531973    -0.15000
C539        C  0.51443349  0.23658884  0.75861281     0.35600
C540        C  0.05258486  0.27197514  0.74845558    -0.26400
C541        C  0.07916997  0.27263413  0.76491647    -0.15700
C542        C  0.06875572  0.25921026  0.79179481     0.36700
N543        N  0.09518741  0.26212456  0.81003346    -0.89900
H544        H  0.02443047  0.23228211  0.82120037     0.17800
H545        H  0.05938783  0.28499880  0.72844697     0.17800
N546        N  0.48613547  0.21731106  0.74071741    -0.88900
H547        H  0.08264099  0.24892650  0.82857798     0.35100
H548        H  0.11316166  0.29499976  0.81191968     0.40200
H549        H  0.48840784  0.19229821  0.73246987     0.39900
H550        H  0.49044532  0.24091293  0.72578934     0.34800
C551        C  0.22168542  0.47839500  0.76870050    -0.27000
C552        C  0.23887883  0.47944565  0.79198582    -0.15000
C553        C  0.23696949  0.44066626  0.80285290     0.35600
C554        C  0.21910261  0.40236088  0.79000554    -0.26400
C555        C  0.20204751  0.40154840  0.76687104    -0.15700
C556        C  0.20292499  0.43961944  0.75631665     0.36700
N557        N  0.18404010  0.43863426  0.73333249    -0.89900
H558        H  0.22495283  0.00877246  0.75913196     0.17800
H559        H  0.21696906  0.37257733  0.79883491     0.17800
N560        N  0.25168809  0.43950544  0.82753763    -0.88900
H561        H  0.20297336  0.46146813  0.71922022     0.35100
H562        H  0.16475964  0.44823105  0.73789494     0.40200
H563        H  0.27086237  0.42903925  0.82498457     0.39900
H564        H  0.23043671  0.41655408  0.84030830     0.34800
Zr565      Zr  0.27561020  0.62631047  0.81204071     2.17500
O566        O  0.23879329  0.61116969  0.77402972    -0.52000
O567        O  0.22115339  0.59921215  0.84079953    -0.75200
O568        O  0.25167543  0.55138403  0.79996317    -0.82000
O569        O  0.29722965  0.74532155  0.80683424    -0.83700
O570        O  0.28769027  0.52562299  0.81659082    -0.79300
O571        O  0.25677022  0.67835622  0.79524261    -0.91000
O572        O  0.23813829  0.61084757  0.88252912    -0.76900
O573        O  0.28692234  0.59258232  0.84955129    -0.86400
O574        O  0.29118034  0.67523104  0.84550485    -0.86100
O575        O  0.32535416  0.61473341  0.79871117    -0.72900
O576        O  0.32855372  0.69182344  0.79475176    -0.85000
Zr577      Zr  0.40726533  0.69726460  0.85350559     2.26400
Zr578      Zr  0.33767119  0.58320669  0.83702183     2.06300
Zr579      Zr  0.34467402  0.73970286  0.82898586     2.10000
Zr580      Zr  0.30350884  0.64225195  0.88256112     1.78800
O581        O  0.37427095  0.80093351  0.79633315    -0.93800
O582        O  0.27850847  0.57398368  0.90953157    -0.41600
O583        O  0.35709396  0.70776631  0.86674092    -0.78300
O584        O  0.35400953  0.63166312  0.87112876    -0.97000
O585        O  0.39112876  0.64786752  0.82024119    -0.90300
O586        O  0.39523950  0.73038059  0.81604908    -0.93100
C587        C  0.21428534  0.59797322  0.86533272     1.00700
C588        C  0.26817135  0.71935963  0.79608626     1.13600
C589        C  0.26039960  0.52134291  0.80385661     1.04400
O590        O  0.30963378  0.52596014  0.87217815    -0.95300
O591        O  0.38678875  0.57813159  0.85748813    -0.91000
O592        O  0.42604596  0.64478845  0.87018646    -0.84100
C593        C  0.41527653  0.60397913  0.86894192     1.11000
O594        O  0.35152385  0.66406550  0.74094709    -0.97200
Zr595      Zr  0.37845075  0.68030490  0.78314090     1.88900
O596        O  0.46192605  0.72499928  0.82429549    -0.73900
O597        O  0.36067565  0.54426598  0.81185090    -0.53100
O598        O  0.39434185  0.63227919  0.76072351    -0.97800
O599        O  0.40203090  0.74625757  0.75405892    -0.55000
O600        O  0.44329626  0.71092876  0.78329741    -0.74400
C601        C  0.46813094  0.72544614  0.79966597     0.98000
O602        O  0.44489110  0.72156319  0.89095648    -0.63200
O603        O  0.32192411  0.77627201  0.85659567    -0.58000
O604        O  0.42885413  0.77127178  0.86714931    -0.94700
O605        O  0.39168947  0.79584391  0.85150475    -0.93100
O606        O  0.29028693  0.69034587  0.90718461    -0.93500
O607        O  0.32831516  0.65486892  0.92546188    -0.92300
C608        C  0.41910096  0.80063876  0.86410256     1.16800
H609        H  0.27173840  0.68155408  0.84939921     0.32700
H610        H  0.35956125  0.61944628  0.88647665     0.43600
H611        H  0.41622305  0.75800415  0.81041793     0.37100
H612        H  0.31878365  0.59554929  0.78477420     0.33600
H613        H  0.26297341  0.57645308  0.92336350     0.25400
H614        H  0.34602288  0.51344960  0.81862976     0.31300
H615        H  0.41066770  0.62733039  0.77231823     0.37200
H616        H  0.27521697  0.69808852  0.89591893     0.31700
H617        H  0.32542441  0.80212830  0.84567536     0.30600
H618        H  0.36795927  0.82268958  0.80238649     0.32300
H619        H  0.42323682  0.76859561  0.76257398     0.31200
H620        H  0.35408513  0.67791684  0.92205187     0.35200
H621        H  0.43085231  0.69941484  0.90544713     0.27900
H622        H  0.21451197  0.58648411  0.77990647     0.32200
H623        H  0.37234996  0.67393157  0.72798514     0.35000
H624        H  0.29510461  0.75718021  0.85848690     0.27600
H625        H  0.46657228  0.71823317  0.88708588     0.40500
H626        H  0.31186102  0.50140617  0.86578360     0.30600
H627        H  0.26090797  0.55179475  0.89861493     0.38200
H628        H  0.38323391  0.75537564  0.75550489     0.30000
H629        H  0.35263948  0.54520129  0.79400862     0.30100
H630        H  0.24934720  0.59935494  0.76155442     0.30400
C631        C  0.11961789  0.79401077  0.75788692     0.85800
C632        C  0.13942634  0.76953540  0.76759644    -0.54400
C633        C  0.17561814  0.78904189  0.75953406     0.08800
C634        C  0.18884342  0.83194032  0.74237401     0.19700
C635        C  0.14217230  0.84012649  0.76616193    -0.55100
C636        C  0.17806184  0.85983621  0.75835570     0.08900
C637        C  0.12676717  0.79854101  0.72792938    -0.54700
C638        C  0.16294061  0.81878232  0.71986339     0.09400
H639        H  0.12595274  0.73962252  0.78010104     0.13900
H640        H  0.21822419  0.84847971  0.73579611    -0.00300
H641        H  0.13077062  0.85578668  0.77788712     0.14200
H642        H  0.10585248  0.78705348  0.71391379     0.14000
C643        C  0.06549927  0.53435954  0.90659176     0.85800
C644        C  0.04250354  0.98851835  0.89623369    -0.54400
C645        C  0.50758364  0.96666889  0.90602202     0.08800
C646        C  0.49765424  0.99485950  0.92255815     0.19700
C647        C  0.04471779  0.55853597  0.89812252    -0.55100
C648        C  0.50801209  0.53596639  0.90811149     0.08900
C649        C  0.06002333  0.52930986  0.93645922    -0.54700
C650        C  0.02424809  0.50821215  0.94560617     0.09400
H651        H  0.05312523  0.97286946  0.88378655     0.13900
H652        H  0.46876009  0.97787840  0.93034314    -0.00300
H653        H  0.05650571  0.58866320  0.88600305     0.14200
H654        H  0.08257596  0.54185965  0.94925709     0.14000
Zr655      Zr  0.48867581  0.55963600  0.52065618     2.17500
O656        O  0.46665015  0.57709136  0.55995705    -0.52000
O657        O  0.46544173  0.59646105  0.49174424    -0.75200
O658        O  0.03744773  0.63123215  0.53825695    -0.82000
O659        O  0.40442810  0.94476810  0.52453478    -0.83700
O660        O  0.09303140  0.64408751  0.52215197    -0.79300
O661        O  0.42305590  0.01243121  0.53758863    -0.91000
O662        O  0.47338833  0.58299727  0.45020485    -0.76900
O663        O  0.03443373  0.59225953  0.48552046    -0.86400
O664        O  0.46312265  0.01448957  0.48624847    -0.86100
O665        O  0.04154246  0.55463252  0.53539754    -0.72900
O666        O  0.47758945  0.98798731  0.53610519    -0.85000
Zr667      Zr  0.04773029  0.96848243  0.47762496     2.26400
Zr668      Zr  0.08513352  0.58439156  0.49883217     2.06300
Zr669      Zr  0.45353052  0.94439803  0.50037484     2.10000
Zr670      Zr  0.50884078  0.54612060  0.44917660     1.78800
O671        O  0.42639608  0.87952798  0.53048785    -0.93800
O672        O  0.05136814  0.62044837  0.42725421    -0.41600
O673        O  0.49579002  0.97338693  0.46322735    -0.78300
O674        O  0.06230117  0.54435288  0.46134228    -0.97000
O675        O  0.07323115  0.51283149  0.51134545    -0.90300
O676        O  0.00427000  0.93821416  0.51429618    -0.96100
C677        C  0.46087766  0.59833639  0.46718427     1.00700
C678        C  0.39858120  0.97203877  0.53605272     1.13600
C679        C  0.07296188  0.65397012  0.53592520     1.04400
O680        O  0.11977047  0.65023607  0.47011372    -0.95300
O681        O  0.13648331  0.58507153  0.47783503    -0.91000
O682        O  0.11681748  0.51860924  0.46240236    -0.84100
C683        C  0.14204668  0.55796281  0.46596615     1.11000
O684        O  0.00865286  0.98921573  0.59263231    -0.97200
Zr685      Zr  0.02949022  0.98336564  0.54920686     1.88900
O686        O  0.07242990  0.93318330  0.50657746    -0.73900
O687        O  0.13269620  0.59867564  0.52922998    -0.53100
O688        O  0.07958566  0.51611150  0.57467317    -0.97800
O689        O  0.49135187  0.91529168  0.57241937    -0.55000
O690        O  0.06620413  0.94816345  0.54795434    -0.74400
C691        C  0.07851907  0.93274806  0.53091721     0.98000
O692        O  0.06483355  0.94012318  0.44091537    -0.63200
O693        O  0.40048613  0.91775566  0.47381018    -0.58000
O694        O  0.00070807  0.89936478  0.46012027    -0.94700
O695        O  0.44654628  0.88841296  0.47393964    -0.93100
O696        O  0.45550437  0.00431128  0.42265799    -0.93500
O697        O  0.02813426  0.54858271  0.40437612    -0.92300
C698        C  0.46691386  0.87954726  0.45973712     1.16800
H699        H  0.43988786  0.01188993  0.48206815     0.32700
H700        H  0.08026619  0.55666605  0.44684734     0.43600
H701        H  0.50005890  0.90994560  0.51666218     0.37100
H702        H  0.05130923  0.57062084  0.55051274     0.33600
H703        H  0.04894188  0.64171279  0.43767111     0.25400
H704        H  0.15128291  0.62952919  0.52507614     0.31300
H705        H  0.10263004  0.02457159  0.56606999     0.37200
H706        H  0.46034973  0.47739458  0.41919898     0.31700
H707        H  0.38072108  0.89258562  0.48436770     0.30600
H708        H  0.40103547  0.86222238  0.52514755     0.32300
H709        H  0.99401706  0.89192919  0.56451670     0.31200
H710        H  0.04287344  0.53366676  0.40544668     0.35200
H711        H  0.07415587  0.96385656  0.42684007     0.27900
H712        H  0.46730095  0.60499806  0.55518503     0.32200
H713        H  0.02188637  0.98009301  0.60491976     0.35000
H714        H  0.39284529  0.94020389  0.47340204     0.27600
H715        H  0.08657093  0.93817838  0.44615480     0.40500
H716        H  0.14205927  0.66826092  0.47934586     0.30600
H717        H  0.07614738  0.62506564  0.43034724     0.38200
H718        H  0.48969173  0.89248560  0.56134386     0.30000
H719        H  0.12156951  0.59803324  0.54652652     0.30100
H720        H  0.48604422  0.58417471  0.57241846     0.30400
C721        C  0.29832069  0.64675871  0.43186948     0.85800
C722        C  0.30035484  0.64650484  0.40213766    -0.54400
C723        C  0.33477840  0.66677369  0.39075060     0.08800
C724        C  0.36485777  0.68534618  0.41027149     0.19700
C725        C  0.32213083  0.62705569  0.44134818    -0.55100
C726        C  0.35663281  0.64730859  0.42997214     0.08900
C727        C  0.32173633  0.69548089  0.43733627    -0.54700
C728        C  0.35682686  0.71557171  0.42599217     0.09400
H729        H  0.27617657  0.63163103  0.39091991     0.13900
H730        H  0.39311504  0.70121378  0.40127591    -0.00300
H731        H  0.31426604  0.60156828  0.45678829     0.14200
H732        H  0.31219335  0.71121121  0.45050442     0.14000
C733        C  0.24173864  0.88459183  0.56981604     0.85800
C734        C  0.21731161  0.83698228  0.56233117    -0.54400
C735        C  0.18150139  0.81770636  0.57222652     0.08800
C736        C  0.17376264  0.84734301  0.58867274     0.19700
C737        C  0.22006777  0.90710180  0.56010084    -0.55100
C738        C  0.18471092  0.88745955  0.57001657     0.08900
C739        C  0.23736791  0.88156200  0.59961482    -0.54700
C740        C  0.20218478  0.86222272  0.60950919     0.09400
H741        H  0.22682940  0.82100939  0.54931760     0.13900
H742        H  0.14506492  0.83182345  0.59683400    -0.00300
H743        H  0.23023483  0.93370193  0.54508687     0.14200
H744        H  0.26039162  0.89282967  0.61200036     0.14000
Zr745      Zr  0.10680777  0.79298062  0.14664396     2.17500
O746        O  0.07121094  0.77609122  0.10795386    -0.52000
O747        O  0.05159173  0.76691358  0.17454221    -0.75200
O748        O  0.08419791  0.71805458  0.13453282    -0.82000
O749        O  0.12675067  0.91098694  0.14201255    -0.83700
O750        O  0.12173313  0.69378506  0.15007946    -0.79300
O751        O  0.08807064  0.84456486  0.12882828    -0.91000
O752        O  0.06641147  0.78122748  0.21635352    -0.76900
O753        O  0.11726730  0.75793722  0.18386216    -0.86400
O754        O  0.12036632  0.84045049  0.18082970    -0.86100
O755        O  0.15797208  0.78371860  0.13390614    -0.72900
O756        O  0.15952579  0.85986795  0.13068017    -0.85000
Zr757      Zr  0.23541226  0.86321499  0.19083197     2.26400
Zr758      Zr  0.16947416  0.75075180  0.17208345     2.06300
Zr759      Zr  0.17365141  0.90599855  0.16559948     2.10000
Zr760      Zr  0.13094297  0.80545427  0.21783716     1.78800
O761        O  0.20482546  0.96862368  0.13402024    -0.93800
O762        O  0.10122038  0.73285616  0.24017274    -0.41600
O763        O  0.18430158  0.87219766  0.20334132    -0.78300
O764        O  0.18260794  0.79659400  0.20727930    -0.97000
O765        O  0.22229974  0.81670258  0.15638843    -0.90300
O766        O  0.22532751  0.89839570  0.15353935    -0.93100
C767        C  0.04330299  0.76758942  0.19860494     1.00700
C768        C  0.09873284  0.88532191  0.13014438     1.13600
C769        C  0.09397996  0.68880175  0.13776211     1.04400
O770        O  0.13968161  0.68910561  0.20442782    -0.95300
O771        O  0.21792304  0.74643998  0.19471651    -0.91000
O772        O  0.25514267  0.81288939  0.20859862    -0.84100
C773        C  0.24584264  0.77277956  0.20664116     1.11000
O774        O  0.18387359  0.84246989  0.07715687    -0.97200
Zr775      Zr  0.21072716  0.85077484  0.11942792     1.88900
O776        O  0.29043005  0.88678733  0.16293714    -0.73900
O777        O  0.19651193  0.71693902  0.14610615    -0.53100
O778        O  0.22397881  0.80260672  0.09487541    -0.97800
O779        O  0.23771023  0.91936468  0.09244025    -0.55000
O780        O  0.27537909  0.87823768  0.12079115    -0.74400
C781        C  0.29841715  0.88835729  0.13852620     0.98000
O782        O  0.27288787  0.89165037  0.22793308    -0.63200
O783        O  0.14997748  0.94159658  0.19319398    -0.58000
O784        O  0.25615462  0.93558599  0.20554742    -0.94700
O785        O  0.21986567  0.96112931  0.18907091    -0.93100
O786        O  0.12022636  0.85086742  0.24672810    -0.93500
O787        O  0.15425977  0.80854066  0.26100801    -0.92300
C788        C  0.24635646  0.96470658  0.20239421     1.16800
H789        H  0.10093182  0.84695678  0.18437647     0.32700
H790        H  0.18775028  0.78395478  0.22261816     0.43600
H791        H  0.24654599  0.92632165  0.14885878     0.37100
H792        H  0.15210780  0.76519172  0.11966433     0.33600
H793        H  0.08506060  0.73388539  0.25410740     0.25400
H794        H  0.18356319  0.68589680  0.15261332     0.31300
H795        H  0.23896543  0.79490335  0.10627467     0.37200
H796        H  0.14000888  0.88081151  0.24164474     0.31700
H797        H  0.15382237  0.96779181  0.18249215     0.30600
H798        H  0.20103340  0.99148851  0.14141042     0.32300
H799        H  0.25273015  0.91616363  0.07853473     0.31200
H800        H  0.17939541  0.83357773  0.25918988     0.35200
H801        H  0.26290573  0.86765622  0.24185941     0.27900
H802        H  0.04737764  0.75019454  0.11331786     0.32200
H803        H  0.20318063  0.84639583  0.06413457     0.35000
H804        H  0.12314948  0.92243071  0.19461476     0.27600
H805        H  0.29719985  0.89571793  0.22249339     0.40500
H806        H  0.14669959  0.66783902  0.19856049     0.30600
H807        H  0.08419627  0.71360055  0.22772889     0.38200
H808        H  0.25582419  0.94133839  0.10317858     0.30000
H809        H  0.18800284  0.71733207  0.12836613     0.30100
H810        H  0.08336332  0.76593333  0.09563072     0.30400
C811        C  0.44682623  0.95426858  0.09523494     0.85800
C812        C  0.46702505  0.92945956  0.10290365    -0.54400
C813        C  0.00465749  0.95225455  0.09276308     0.08800
C814        C  0.01473334  0.49577560  0.07729578     0.19700
C815        C  0.47170497  0.49919670  0.10603648    -0.55100
C816        C  0.00668493  0.52372333  0.09535917     0.08900
C817        C  0.45060162  0.96012130  0.06517800    -0.54700
C818        C  0.98734947  0.98285525  0.05531404     0.09400
H819        H  0.45466442  0.90035237  0.11616547     0.13900
H820        H  0.04335263  0.51216862  0.06896460    -0.00300
H821        H  0.46240086  0.51656673  0.11804396     0.14200
H822        H  0.42763134  0.95062458  0.05297038     0.14000
C823        C  0.39416166  0.69577664  0.23765660     0.85800
C824        C  0.37031288  0.64817323  0.23196189    -0.54400
C825        C  0.33556996  0.62937439  0.24231971     0.08800
C826        C  0.32770708  0.65893553  0.25907903     0.19700
C827        C  0.37221520  0.71825612  0.22933455    -0.55100
C828        C  0.33731332  0.69942010  0.24050706     0.08900
C829        C  0.39244565  0.69364781  0.26754622    -0.54700
C830        C  0.35790056  0.67501235  0.27882912     0.09400
H831        H  0.37912101  0.62994219  0.22035203     0.13900
H832        H  0.29986974  0.64310427  0.26858871    -0.00300
H833        H  0.38343878  0.74637396  0.21530318     0.14200
H834        H  0.41638270  0.70515394  0.27899833     0.14000
C835        C  0.34243398  0.88577050  0.10679281    -0.27000
C836        C  0.33648111  0.90178019  0.12973143    -0.15000
C837        C  0.36672913  0.92929677  0.14361578     0.35600
C838        C  0.40206519  0.94367933  0.13274153    -0.26400
C839        C  0.40803465  0.93251716  0.10787052    -0.15700
C840        C  0.37780754  0.89945231  0.09628839     0.36700
N841        N  0.38293426  0.87911035  0.07437596    -0.89900
H842        H  0.31927990  0.86192613  0.09711143     0.17800
H843        H  0.42500317  0.96430054  0.14377737     0.17800
N844        N  0.36170190  0.94321057  0.16837157    -0.88900
H845        H  0.35783041  0.85530242  0.06839095     0.35100
H846        H  0.39708610  0.86307042  0.08057778     0.40200
H847        H  0.35008198  0.96320874  0.16506456     0.39900
H848        H  0.38685135  0.96230816  0.17630543     0.34800
C849        C  0.05432374  0.64456900  0.10329739    -0.27000
C850        C  0.07273124  0.64663025  0.12610263    -0.15000
C851        C  0.07162953  0.60835311  0.13708296     0.35600
C852        C  0.05218582  0.56921218  0.12536732    -0.26400
C853        C  0.03332692  0.56709482  0.10301217    -0.15700
C854        C  0.03421682  0.60496240  0.09182120     0.36700
N855        N  0.01427060  0.60284686  0.06912309    -0.89900
H856        H  0.05535205  0.67377396  0.09454651     0.17800
H857        H  0.05030469  0.53977317  0.13455741     0.17800
N858        N  0.08893484  0.60854607  0.16078531    -0.88900
H859        H  0.01837540  0.63367789  0.06298084     0.35100
H860        H  0.98643496  0.58376024  0.07450261     0.40200
H861        H  0.10764092  0.59768844  0.15718748     0.39900
H862        H  0.06895269  0.58645250  0.17464038     0.34800
C863        C  0.04153375  0.87498187  0.11017833    -0.27000
C864        C  0.07667819  0.90373483  0.11792393    -0.15000
C865        C  0.08893602  0.94922269  0.11469665     0.35600
C866        C  0.06570611  0.96400528  0.10507286    -0.26400
C867        C  0.02992166  0.93502911  0.09908962    -0.15700
C868        C  0.01819846  0.89008933  0.10095723     0.36700
N869        N  0.47902930  0.85465464  0.09449570    -0.89900
H870        H  0.03146573  0.84025263  0.11192575     0.17800
H871        H  0.07534325  0.99861740  0.10347524     0.17800
N872        N  0.12449640  0.98161727  0.12121941    -0.88900
H873        H  0.46547991  0.83310462  0.11082026     0.35100
H874        H  0.48144836  0.83685648  0.07977047     0.40200
H875        H  0.14425703  0.97733937  0.11112048     0.39900
H876        H  0.12676534  0.97874877  0.14130588     0.34800
C877        C  0.32737015  0.76267630  0.23012869    -0.27000
C878        C  0.31213506  0.71739521  0.23467811    -0.15000
C879        C  0.27391835  0.69097793  0.23275502     0.35600
C880        C  0.25295677  0.71023596  0.22448873    -0.26400
C881        C  0.26874625  0.75530983  0.21843455    -0.15700
C882        C  0.30643464  0.78178907  0.22228692     0.36700
N883        N  0.32474790  0.82814784  0.21793923    -0.89900
H884        H  0.35616578  0.78384273  0.23261554     0.17800
H885        H  0.22399137  0.68958032  0.22231332     0.17800
N886        N  0.25621983  0.64476938  0.23870901    -0.88900
H887        H  0.31309825  0.84021054  0.23095802     0.35100
H888        H  0.32163954  0.83662177  0.19875496     0.40200
H889        H  0.26489208  0.63158244  0.22440070     0.39900
H890        H  0.22790809  0.63078181  0.23765606     0.34800
C891        C  0.28017954  0.54549965  0.19641603    -0.27000
C892        C  0.26674931  0.50718500  0.21262958    -0.15000
C893        C  0.27289900  0.50905241  0.23943095     0.35600
C894        C  0.29370838  0.54976157  0.24938007    -0.26400
C895        C  0.30809761  0.58803019  0.23294761    -0.15700
C896        C  0.30147977  0.58594400  0.20614550     0.36700
N897        N  0.31850791  0.62466825  0.18862657    -0.89900
H898        H  0.27528083  0.54367459  0.17581775     0.17800
H899        H  0.30018867  0.55139508  0.26959215     0.17800
N900        N  0.26810440  0.96881041  0.25610869    -0.88900
H901        H  0.31138026  0.61728446  0.16950287     0.35100
H902        H  0.30860578  0.64531100  0.19378375     0.40200
H903        H  0.23962173  0.95081635  0.25866123     0.39900
H904        H  0.27795831  0.97608195  0.27468003     0.34800
C905        C  0.44024654  0.70087155  0.20250972    -0.27000
C906        C  0.43270448  0.71768379  0.22464655    -0.15000
C907        C  0.46168001  0.75498969  0.23427242     0.35600
C908        C  0.99627808  0.76998586  0.22755444    -0.26400
C909        C  0.00458774  0.75193246  0.20658333    -0.15700
C910        C  0.47610884  0.71483228  0.19315734     0.36700
N911        N  0.48303742  0.69443080  0.17198431    -0.89900
H912        H  0.41837459  0.67650284  0.19228995     0.17800
H913        H  0.01817874  0.79675822  0.23652118     0.17800
N914        N  0.45462133  0.77857497  0.25336606    -0.88900
H915        H  0.45854955  0.67068388  0.16516562     0.35100
H916        H  0.99704656  0.68521137  0.17751703     0.40200
H917        H  0.43948841  0.79165584  0.24470175     0.39900
H918        H  0.47899184  0.80488261  0.25847896     0.34800
C919        C  0.32085382  0.63228164  0.34860353    -0.27000
C920        C  0.34157673  0.66923027  0.36216062    -0.15000
C921        C  0.36727005  0.70812835  0.34815911     0.35600
C922        C  0.37204582  0.70930780  0.32101894    -0.26400
C923        C  0.35123904  0.67235831  0.30745867    -0.15700
C924        C  0.32541077  0.63358113  0.32146595     0.36700
N925        N  0.30450383  0.59504604  0.30840169    -0.89900
H926        H  0.30121128  0.60199974  0.35916198     0.17800
H927        H  0.39174365  0.73952666  0.31042304     0.17800
N928        N  0.38763420  0.74688956  0.36124166    -0.88900
H929        H  0.27680477  0.58479253  0.31225511     0.35100
H930        H  0.30974392  0.57088750  0.31635985     0.40200
H931        H  0.38196166  0.77066318  0.35324826     0.39900
H932        H  0.41544614  0.75770239  0.35746475     0.34800
C933        C  0.19703934  0.61677547  0.44156191    -0.27000
C934        C  0.18068400  0.57592326  0.45575312    -0.15000
C935        C  0.20349744  0.55883692  0.46373581     0.35600
C936        C  0.24118285  0.58193844  0.45633260    -0.26400
C937        C  0.25779932  0.62326372  0.44223023    -0.15700
C938        C  0.23476694  0.64026620  0.43485767     0.36700
N939        N  0.24956315  0.68143804  0.42010661    -0.89900
H940        H  0.18030867  0.63116274  0.43596807     0.17800
H941        H  0.25685991  0.56643153  0.46189829     0.17800
N942        N  0.18997756  0.51907002  0.48001969    -0.88900
H943        H  0.24370147  0.70191856  0.43068475     0.35100
H944        H  0.23631106  0.67670667  0.40266237     0.40200
H945        H  0.15934876  0.00317773  0.48648782     0.39900
H946        H  0.20389373  0.52652273  0.49720677     0.34800
C947        C  0.41414966  0.83746257  0.43363307    -0.27000
C948        C  0.44547240  0.84036661  0.44512014    -0.15000
C949        C  0.44857867  0.80223845  0.44809683     0.35600
C950        C  0.41973026  0.76263082  0.44091611    -0.26400
C951        C  0.38709694  0.75930478  0.43177002    -0.15700
C952        C  0.38498597  0.79771500  0.42743058     0.36700
N953        N  0.35367378  0.79752712  0.41680242    -0.89900
H954        H  0.41115634  0.86622382  0.43114302     0.17800
H955        H  0.42223850  0.73365408  0.44375779     0.17800
N956        N  0.47898488  0.80141711  0.45985329    -0.88900
H957        H  0.33096125  0.77901588  0.42966157     0.35100
H958        H  0.34902745  0.78306345  0.39910322     0.40200
H959        H  0.99542940  0.82793056  0.46977365     0.39900
H960        H  0.98894992  0.78702505  0.45185749     0.34800
C961        C  0.39622964  0.64544481  0.46429890    -0.27000
C962        C  0.38510236  0.63759237  0.43878434    -0.15000
C963        C  0.40106418  0.62056948  0.42213838     0.35600
C964        C  0.42687624  0.61011852  0.43155546    -0.26400
C965        C  0.43748048  0.61634245  0.45748539    -0.15700
C966        C  0.42262755  0.63554372  0.47382279     0.36700
N967        N  0.43387607  0.64448539  0.49997600    -0.89900
H968        H  0.38425765  0.65947568  0.47678076     0.17800
H969        H  0.43769893  0.59556311  0.41852816     0.17800
N970        N  0.39038978  0.61174763  0.39594879    -0.88900
H971        H  0.41959414  0.65761935  0.50940090     0.35100
H972        H  0.46140041  0.66847157  0.49869912     0.40200
H973        H  0.39652711  0.64090146  0.38549662     0.39900
H974        H  0.36213674  0.59103221  0.39643789     0.34800
C975        C  0.30218301  0.95308423  0.55316991    -0.27000
C976        C  0.28294427  0.90785260  0.56084886    -0.15000
C977        C  0.30395388  0.88650309  0.56373243     0.35600
C978        C  0.34176103  0.90919271  0.55686203    -0.26400
C979        C  0.36024838  0.95336960  0.54756249    -0.15700
C980        C  0.34015563  0.97566430  0.54607690     0.36700
N981        N  0.35652312  0.52108426  0.53055863    -0.89900
H982        H  0.28798476  0.97160849  0.55285512     0.17800
H983        H  0.35702126  0.89181650  0.55846262     0.17800
N984        N  0.28695373  0.84157495  0.57340261    -0.88900
H985        H  0.33783865  0.53260533  0.53002544     0.35100
H986        H  0.36553092  0.52251507  0.51123008     0.40200
H987        H  0.27830032  0.83937353  0.59289312     0.39900
H988        H  0.30581519  0.83030546  0.57328967     0.34800
C989        C  0.12683194  0.69708726  0.56125277    -0.27000
C990        C  0.09491713  0.69341430  0.55037723    -0.15000
C991        C  0.09010954  0.73022730  0.54892558     0.35600
C992        C  0.11821048  0.77019302  0.55686765    -0.26400
C993        C  0.15135500  0.77429430  0.56567629    -0.15700
C994        C  0.15491281  0.73682067  0.56878645     0.36700
N995        N  0.18717290  0.73928366  0.57943993    -0.89900
H996        H  0.13062570  0.66886286  0.56280609     0.17800
H997        H  0.11487278  0.79871702  0.55509223     0.17800
N998        N  0.05762698  0.72746501  0.53855077    -0.88900
H999        H  0.18566398  0.70882603  0.58042497     0.35100
H1000       H  0.18791111  0.74784126  0.59862536     0.40200
H1001       H  0.05755923  0.72109187  0.51895775     0.39900
H1002       H  0.05825340  0.75736586  0.53889750     0.34800
C1003       C  0.11005295  0.91757008  0.56718691    -0.27000
C1004       C  0.10313036  0.91608672  0.54040677    -0.15000
C1005       C  0.12260586  0.90269852  0.52366750     0.35600
C1006       C  0.14953513  0.89436786  0.53364035    -0.26400
C1007       C  0.15721489  0.89814640  0.56000887    -0.15700
C1008       C  0.13668340  0.90861340  0.57698894     0.36700
N1009       N  0.14349991  0.91123479  0.60415621    -0.89900
H1010       H  0.09541340  0.92680913  0.58075041     0.17800
H1011       H  0.16435208  0.88435078  0.52073814     0.17800
N1012       N  0.11579041  0.89682920  0.49665244    -0.88900
H1013       H  0.11922270  0.88936147  0.61475853     0.35100
H1014       H  0.15056873  0.94258995  0.60900902     0.40200
H1015       H  0.12218495  0.92655069  0.48687647     0.39900
H1016       H  0.08816641  0.87455370  0.49505783     0.34800
C1017       C  0.48900111  0.50931860  0.98447972    -0.27000
C1018       C  0.01344700  0.50014975  0.97395365    -0.15000
C1019       C  0.03188121  0.98573079  0.98961309     0.35600
C1020       C  0.02265399  0.98032950  0.01653078    -0.26400
C1021       C  0.99670678  0.99050125  0.02665633    -0.15700
C1022       C  0.47970723  0.50433599  0.01136271     0.36700
N1023       N  0.45423562  0.51710741  0.02103278    -0.89900
H1024       H  0.47643458  0.52223896  0.97114804     0.17800
H1025       H  0.03530560  0.96724625  0.02967089     0.17800
N1026       N  0.05799005  0.97402271  0.97982154    -0.88900
H1027       H  0.44459119  0.52864358  0.00569494     0.35100
H1028       H  0.46844257  0.54314525  0.03247169     0.40200
H1029       H  0.04430775  0.94817164  0.96818559     0.39900
H1030       H  0.06788966  0.96262906  0.99506216     0.34800
C1031       C  0.19845248  0.87271921  0.68277995    -0.27000
C1032       C  0.17528351  0.82930424  0.69186873    -0.15000
C1033       C  0.16158220  0.79718706  0.67390290     0.35600
C1034       C  0.17019847  0.80907113  0.64715795    -0.26400
C1035       C  0.19252455  0.85262972  0.63790209    -0.15700
C1036       C  0.20663991  0.88507592  0.65599969     0.36700
N1037       N  0.22820398  0.93069253  0.64806848    -0.89900
H1038       H  0.20891316  0.89755776  0.69652560     0.17800
H1039       H  0.15985276  0.78395650  0.63354995     0.17800
N1040       N  0.13957239  0.75231591  0.68283560    -0.88900
H1041       H  0.21436765  0.94612100  0.65526675     0.35100
H1042       H  0.22996446  0.93660048  0.62787548     0.40200
H1043       H  0.15268073  0.73557522  0.67640714     0.39900
H1044       H  0.11457670  0.74019663  0.67408180     0.34800
C1045       C  0.46431962  0.84675669  0.89551041    -0.27000
C1046       C  0.44025641  0.84291501  0.87597977    -0.15000
C1047       C  0.43638899  0.87969320  0.86834397     0.35600
C1048       C  0.45713412  0.91901858  0.87960905    -0.26400
C1049       C  0.48156080  0.92281463  0.89853099    -0.15700
C1050       C  0.48489727  0.88632679  0.90689976     0.36700
N1051       N  0.01834116  0.89549221  0.91954689    -0.89900
H1052       H  0.46715948  0.81889403  0.90192903     0.17800
H1053       H  0.45541018  0.94735220  0.87253275     0.17800
N1054       N  0.41234627  0.87801842  0.84856322    -0.88900
H1055       H  0.02140816  0.86782650  0.92044843     0.35100
H1056       H  0.01018820  0.89813469  0.93837176     0.40200
H1057       H  0.42780882  0.90149006  0.83345844     0.39900
H1058       H  0.39356638  0.88615487  0.85657949     0.34800
C1059       C  0.16156887  0.54914250  0.89513556    -0.27000
C1060       C  0.17636112  0.58163276  0.87471077    -0.15000
C1061       C  0.15562496  0.59982015  0.86452619     0.35600
C1062       C  0.12026122  0.58539943  0.87537622    -0.26400
C1063       C  0.10512981  0.55307862  0.89633650    -0.15700
C1064       C  0.12605646  0.53402971  0.90558845     0.36700
N1065       N  0.10935353  0.99497730  0.92133040    -0.89900
H1066       H  0.17750027  0.53482664  0.90273098     0.17800
H1067       H  0.10474082  0.59898472  0.86653234     0.17800
N1068       N  0.17069923  0.63311972  0.84335196    -0.88900
H1069       H  0.10999838  0.96919881  0.91277761     0.35100
H1070       H  0.12526099  0.00205029  0.93756038     0.40200
H1071       H  0.19287136  0.66036677  0.85010302     0.39900
H1072       H  0.15177739  0.64281761  0.83786031     0.34800
C1073       C  0.47187909  0.61382667  0.88996859    -0.27000
C1074       C  0.43720493  0.58545945  0.88135542    -0.15000
C1075       C  0.42457534  0.53996947  0.88436325     0.35600
C1076       C  0.44758423  0.52470139  0.89429416    -0.26400
C1077       C  0.48290039  0.55335091  0.90136704    -0.15700
C1078       C  0.49455505  0.59829274  0.89999479     0.36700
N1079       N  0.52936370  0.62843467  0.90895706    -0.89900
H1080       H  0.48195897  0.64855793  0.88852510     0.17800
H1081       H  0.93943551  0.49306310  0.89406633     0.17800
N1082       N  0.38864877  0.50919074  0.87715171    -0.88900
H1083       H  0.52500013  0.64499316  0.92361446     0.35100
H1084       H  0.54448853  0.65114599  0.89343384     0.40200
H1085       H  0.36983507  0.51054024  0.89019945     0.39900
H1086       H  0.38442826  0.47746686  0.87947950     0.34800
C1087       C  0.23544141  0.79912685  0.77368384    -0.27000
C1088       C  0.19976574  0.77080604  0.76709534    -0.15000
C1089       C  0.18765929  0.72574345  0.76825751     0.35600
C1090       C  0.21060024  0.70985724  0.77713522    -0.26400
C1091       C  0.24594665  0.73800010  0.78466904    -0.15700
C1092       C  0.25863364  0.78342210  0.78224434     0.36700
N1093       N  0.29499320  0.81403126  0.78845004    -0.89900
H1094       H  0.24529942  0.83379820  0.77278185     0.17800
H1095       H  0.20030132  0.67508172  0.77841410     0.17800
N1096       N  0.15231371  0.69585865  0.75998829    -0.88900
H1097       H  0.29323587  0.83234255  0.80311913     0.35100
H1098       H  0.30820966  0.83510505  0.77188679     0.40200
H1099       H  0.13783205  0.67303928  0.77561629     0.39900
H1100       H  0.15583263  0.67941364  0.74488937     0.34800
C1101       C  0.03442418  0.74813391  0.80556603    -0.27000
C1102       C  0.50622496  0.74312089  0.78897392    -0.15000
C1103       C  0.51541908  0.75494009  0.76203868     0.35600
C1104       C  0.05298760  0.77270372  0.75257674    -0.26400
C1105       C  0.08008203  0.77455607  0.76883155    -0.15700
C1106       C  0.07067781  0.76346948  0.79603039     0.36700
N1107       N  0.09782668  0.76788249  0.81401480    -0.89900
H1108       H  0.02727623  0.73859042  0.82615944     0.17800
H1109       H  0.05916670  0.78415105  0.73228333     0.17800
N1110       N  0.48913545  0.75422259  0.74447433    -0.88900
H1111       H  0.08598948  0.75628898  0.83288975     0.35100
H1112       H  0.11605606  0.80098214  0.81483401     0.40200
H1113       H  0.48678932  0.73363996  0.72994015     0.39900
H1114       H  0.49903216  0.78557741  0.73563998     0.34800
C1115       C  0.22314384  0.97941599  0.76836318    -0.27000
C1116       C  0.23892983  0.98052467  0.79228394    -0.15000
C1117       C  0.23663879  0.94185757  0.80385259     0.35600
C1118       C  0.21936335  0.90346566  0.79101274    -0.26400
C1119       C  0.20338420  0.90251321  0.76737925    -0.15700
C1120       C  0.20509693  0.94059099  0.75600786     0.36700
N1121       N  0.18789130  0.93963049  0.73217069    -0.89900
H1122       H  0.22278753  0.50769846  0.76004250     0.17800
H1123       H  0.21655746  0.87352628  0.80015678     0.17800
N1124       N  0.25078448  0.94132801  0.82897451    -0.88900
H1125       H  0.20781281  0.96219530  0.71845285     0.35100
H1126       H  0.16860236  0.94967420  0.73556863     0.40200
H1127       H  0.24690973  0.91042546  0.83463003     0.39900
H1128       H  0.23548647  0.94780400  0.84254910     0.34800
Zr1129     Zr  0.77629550  0.12993292  0.80965487     2.17500
O1130       O  0.74332979  0.11540653  0.76977511    -0.52000
O1131       O  0.72184800  0.10309424  0.83815925    -0.75200
O1132       O  0.75147237  0.05393025  0.79923285    -0.82000
O1133       O  0.79731104  0.24777191  0.80398470    -0.83700
O1134       O  0.78950232  0.02984832  0.81399000    -0.79300
O1135       O  0.75550002  0.18049642  0.79366908    -0.91000
O1136       O  0.73963685  0.11377753  0.87975620    -0.76900
O1137       O  0.78879258  0.09677393  0.84690800    -0.86400
O1138       O  0.79247842  0.17932641  0.84300273    -0.86100
O1139       O  0.82580984  0.11871484  0.79561226    -0.72900
O1140       O  0.82883865  0.19574343  0.79225431    -0.85000
Zr1141     Zr  0.90895713  0.20164265  0.84938382     2.26400
Zr1142     Zr  0.83963205  0.08797844  0.83352690     2.06300
Zr1143     Zr  0.84577319  0.24401092  0.82627046     2.10000
Zr1144     Zr  0.80544414  0.14661618  0.87978085     1.78800
O1145       O  0.87545642  0.30544301  0.79367269    -0.93800
O1146       O  0.78321602  0.08077148  0.90875877    -0.41600
O1147       O  0.85904341  0.21207014  0.86368736    -0.78300
O1148       O  0.85600474  0.13638557  0.86760637    -0.97000
O1149       O  0.89243367  0.15251051  0.81606122    -0.90300
O1150       O  0.89602111  0.23468640  0.81230014    -0.93100
C1151       C  0.71540426  0.10133953  0.86278075     1.00700
C1152       C  0.76752621  0.22171542  0.79394483     1.13600
C1153       C  0.76103845  0.02448601  0.80251675     1.04400
O1154       O  0.81189043  0.02480953  0.86493405    -0.95300
O1155       O  0.88783510  0.08291938  0.85557988    -0.91000
O1156       O  0.92906070  0.15038346  0.86588285    -0.84100
C1157       C  0.91739523  0.10922329  0.86581112     1.11000
O1158       O  0.84999186  0.17409586  0.73760759    -0.97200
Zr1159     Zr  0.87836215  0.18443635  0.77936074     1.88900
O1160       O  0.96210699  0.22661868  0.81903990    -0.73900
O1161       O  0.86642114  0.05680921  0.80511086    -0.53100
O1162       O  0.88805854  0.13214152  0.75633299    -0.97800
O1163       O  0.90376851  0.25051718  0.75025687    -0.55000
O1164       O  0.94306350  0.21178978  0.77812938    -0.74400
C1165       C  0.96800126  0.22598608  0.79447556     0.98000
O1166       O  0.94753625  0.22659410  0.88632369    -0.63200
O1167       O  0.82287296  0.28197115  0.85248130    -0.58000
O1168       O  0.93249858  0.27605326  0.86243178    -0.94700
O1169       O  0.89250670  0.29860844  0.85029207    -0.93100
O1170       O  0.79254073  0.19684907  0.90236716    -0.93500
O1171       O  0.82858321  0.15717894  0.92324946    -0.92300
C1172       C  0.92146962  0.30434233  0.86116524     1.16800
H1173       H  0.77309717  0.18559605  0.84722821     0.32700
H1174       H  0.86200346  0.12441086  0.88283077     0.43600
H1175       H  0.91697056  0.26223902  0.80646742     0.37100
H1176       H  0.81868232  0.09925559  0.78180078     0.33600
H1177       H  0.75835509  0.06086928  0.90339402     0.25400
H1178       H  0.85499285  0.02582670  0.81159335     0.31300
H1179       H  0.90972879  0.14990052  0.74427297     0.37200
H1180       H  0.76855248  0.17835379  0.91187909     0.31700
H1181       H  0.82596247  0.30695766  0.84085044     0.30600
H1182       H  0.89888292  0.32586182  0.80085415     0.32300
H1183       H  0.92613042  0.27170676  0.75827005     0.31200
H1184       H  0.85412251  0.16315171  0.92074986     0.35200
H1185       H  0.93505564  0.20342188  0.90059017     0.27900
H1186       H  0.71911864  0.08964421  0.77436500     0.32200
H1187       H  0.86881477  0.17716305  0.72441870     0.35000
H1188       H  0.79610768  0.26258204  0.85472539     0.27600
H1189       H  0.97014270  0.22579132  0.88142671     0.40500
H1190       H  0.81828823  0.00383804  0.85770921     0.30600
H1191       H  0.79799754  0.06741134  0.90330778     0.38200
H1192       H  0.88643160  0.26168956  0.75248855     0.30000
H1193       H  0.85594628  0.05645460  0.78803890     0.30100
H1194       H  0.75604152  0.10522210  0.75796583     0.30400
C1195       C  0.61963707  0.29652457  0.75479428     0.85800
C1196       C  0.64009635  0.27290398  0.76444124    -0.54400
C1197       C  0.67625662  0.29295798  0.75635768     0.08800
C1198       C  0.68904703  0.33611235  0.73963156     0.19700
C1199       C  0.64137050  0.34266331  0.76342910    -0.55100
C1200       C  0.67747676  0.36314770  0.75588963     0.08900
C1201       C  0.62710551  0.30295108  0.72493995    -0.54700
C1202       C  0.66329075  0.32331487  0.71700493     0.09400
H1203       H  0.62693271  0.24301660  0.77702598     0.13900
H1204       H  0.71850160  0.35318896  0.73321792    -0.00300
H1205       H  0.62939270  0.35773567  0.77510502     0.14200
H1206       H  0.60654044  0.29492063  0.71080900     0.14000
C1207       C  0.56571591  0.03371488  0.90414391     0.85800
C1208       C  0.54097295  0.48545763  0.89802905    -0.54400
C1209       C  0.00720056  0.46806996  0.90654644     0.08800
C1210       C  0.99694757  0.49538195  0.92376930     0.19700
C1211       C  0.54399488  0.05639942  0.89509906    -0.55100
C1212       C  0.00957725  0.03964827  0.90481912     0.08900
C1213       C  0.56124191  0.03074221  0.93404781    -0.54700
C1214       C  0.52576395  0.00942008  0.94384320     0.09400
H1215       H  0.55121601  0.47010583  0.88503520     0.13900
H1216       H  0.96783816  0.47833818  0.93106064    -0.00300
H1217       H  0.55476176  0.08532680  0.88199266     0.14200
H1218       H  0.58426329  0.04430537  0.94639735     0.14000
Zr1219     Zr  0.98783476  0.05943327  0.52239524     2.17500
O1220       O  0.96597403  0.08023588  0.56039074    -0.52000
O1221       O  0.96390196  0.09491128  0.49273826    -0.75200
O1222       O  0.53570469  0.13194770  0.53686784    -0.82000
O1223       O  0.90463379  0.44667599  0.52172354    -0.83700
O1224       O  0.59136380  0.14498943  0.52080613    -0.79300
O1225       O  0.92348735  0.51381670  0.53574895    -0.91000
O1226       O  0.97077826  0.08048811  0.45127312    -0.76900
O1227       O  0.53159219  0.08982551  0.48471478    -0.86400
O1228       O  0.96512071  0.51876705  0.48481721    -0.86100
O1229       O  0.54146742  0.05576673  0.53482658    -0.72900
O1230       O  0.97664563  0.48779767  0.53431673    -0.85000
Zr1231     Zr  0.54864198  0.46878235  0.47609655     2.26400
Zr1232     Zr  0.58383693  0.08501517  0.49762021     2.06300
Zr1233     Zr  0.95370796  0.44719487  0.49720638     2.10000
Zr1234     Zr  0.00491987  0.04240864  0.45090676     1.78800
O1235       O  0.92105662  0.37932561  0.52452738    -0.93800
O1236       O  0.54600404  0.11431255  0.42602333    -0.41600
O1237       O  0.99760470  0.47719344  0.46096041    -0.78300
O1238       O  0.56038899  0.04237701  0.46114202    -0.97000
O1239       O  0.57429507  0.01462524  0.51139130    -0.90300
O1240       O  0.50403166  0.43854651  0.51197012    -0.96100
C1241       C  0.95870064  0.09620748  0.46822976     1.00700
C1242       C  0.89879942  0.47369685  0.53351800     1.13600
C1243       C  0.57123077  0.15505695  0.53440028     1.04400
O1244       O  0.61397516  0.14958023  0.46735574    -0.95300
O1245       O  0.63520444  0.08532436  0.47670393    -0.91000
O1246       O  0.61591038  0.01829785  0.46222693    -0.84100
C1247       C  0.64093088  0.05790306  0.46529682     1.11000
O1248       O  0.50450904  0.48193016  0.59159337    -0.97200
Zr1249     Zr  0.52806161  0.48205080  0.54780019     1.88900
O1250       O  0.57108050  0.43213612  0.50567396    -0.73900
O1251       O  0.63356396  0.10467167  0.52676606    -0.53100
O1252       O  0.58204944  0.02624240  0.57412719    -0.97800
O1253       O  0.98669343  0.41166589  0.56946904    -0.55000
O1254       O  0.56692632  0.44993555  0.54666743    -0.74400
C1255       C  0.57821754  0.43324919  0.52979957     0.98000
O1256       O  0.56668925  0.43918304  0.44052335    -0.63200
O1257       O  0.90338079  0.42710368  0.46845931    -0.58000
O1258       O  0.50181737  0.39979479  0.45802471    -0.94700
O1259       O  0.94693992  0.39020206  0.47166963    -0.93100
O1260       O  0.95934361  0.50908096  0.42218093    -0.93500
O1261       O  0.52429161  0.03620177  0.40608243    -0.92300
C1262       C  0.96726185  0.37991399  0.45852636     1.16800
H1263       H  0.94238926  0.51737552  0.48038203     0.32700
H1264       H  0.57776586  0.05431910  0.44628410     0.43600
H1265       H  0.99777009  0.40970923  0.51423204     0.37100
H1266       H  0.55146990  0.07276514  0.54953418     0.33600
H1267       H  0.52997864  0.11856287  0.41376698     0.25400
H1268       H  0.64994728  0.13627081  0.52286690     0.31300
H1269       H  0.59901214  0.52546850  0.56818963     0.37200
H1270       H  0.93869950  0.97433133  0.43368331     0.31700
H1271       H  0.88374405  0.39871004  0.47625574     0.30600
H1272       H  0.90095392  0.35952558  0.51404826     0.32300
H1273       H  0.49452670  0.39037095  0.56180059     0.31200
H1274       H  0.52647121  0.00952617  0.40790076     0.35200
H1275       H  0.57612102  0.46233609  0.42609726     0.27900
H1276       H  0.96859302  0.10903213  0.55510580     0.32200
H1277       H  0.51852947  0.47368480  0.60366490     0.35000
H1278       H  0.89398580  0.44749016  0.47114044     0.27600
H1279       H  0.58840068  0.43762420  0.44625472     0.40500
H1280       H  0.63704219  0.16893220  0.47537973     0.30600
H1281       H  0.55112654  0.13614785  0.43884644     0.38200
H1282       H  0.96206844  0.40628947  0.56510204     0.30000
H1283       H  0.62241712  0.10194567  0.54440591     0.30100
H1284       H  0.98429962  0.08586896  0.57355550     0.30400
C1285       C  0.79721486  0.14594097  0.43138091     0.85800
C1286       C  0.79945620  0.14675185  0.40158801    -0.54400
C1287       C  0.83394611  0.16679662  0.39031023     0.08800
C1288       C  0.86392568  0.18427034  0.41004858     0.19700
C1289       C  0.82047100  0.12522764  0.44037390    -0.55100
C1290       C  0.85510418  0.14531591  0.42920891     0.08900
C1291       C  0.82104947  0.19428157  0.43750584    -0.54700
C1292       C  0.85624723  0.21419178  0.42635922     0.09400
H1293       H  0.77536457  0.13237906  0.39025418     0.13900
H1294       H  0.89224881  0.20038179  0.40120498    -0.00300
H1295       H  0.81227866  0.09925036  0.45551935     0.14200
H1296       H  0.81159219  0.21000114  0.45075804     0.14000
C1297       C  0.74176630  0.38616565  0.56674005     0.85800
C1298       C  0.71685026  0.33816813  0.55980412    -0.54400
C1299       C  0.68117699  0.31937139  0.56999290     0.08800
C1300       C  0.67420240  0.34974250  0.58626536     0.19700
C1301       C  0.72017395  0.40864291  0.55702879    -0.55100
C1302       C  0.68513632  0.38953630  0.56742753     0.08900
C1303       C  0.73807378  0.38422184  0.59654759    -0.54700
C1304       C  0.70307013  0.36509000  0.60677347     0.09400
H1305       H  0.72590226  0.32165362  0.54686643     0.13900
H1306       H  0.64562514  0.33465552  0.59462460    -0.00300
H1307       H  0.73014020  0.43490814  0.54180135     0.14200
H1308       H  0.76140287  0.39566686  0.60863944     0.14000
Zr1309     Zr  0.60579588  0.28828223  0.14569683     2.17500
O1310       O  0.57487468  0.27495389  0.10493479    -0.52000
O1311       O  0.54960415  0.26024146  0.17289218    -0.75200
O1312       O  0.58352734  0.21338848  0.13354947    -0.82000
O1313       O  0.62558687  0.40617982  0.14039756    -0.83700
O1314       O  0.62076174  0.18929276  0.14998025    -0.79300
O1315       O  0.58621621  0.33922962  0.12822175    -0.91000
O1316       O  0.56436976  0.27332371  0.21489274    -0.76900
O1317       O  0.61574035  0.25409798  0.18360014    -0.86400
O1318       O  0.61862717  0.33611558  0.17958592    -0.86100
O1319       O  0.65732776  0.27934421  0.13380305    -0.72900
O1320       O  0.65864041  0.35549464  0.13032101    -0.85000
Zr1321     Zr  0.73395493  0.36029211  0.19073692     2.26400
Zr1322     Zr  0.66803363  0.24681649  0.17247308     2.06300
Zr1323     Zr  0.67198461  0.40215128  0.16503354     2.10000
Zr1324     Zr  0.62929336  0.30259632  0.21711917     1.78800
O1325       O  0.69940714  0.46660713  0.13462162    -0.93800
O1326       O  0.60294174  0.23382370  0.24367098    -0.41600
O1327       O  0.68286150  0.36932249  0.20306511    -0.78300
O1328       O  0.68113150  0.29367291  0.20716706    -0.97000
O1329       O  0.72100249  0.31283468  0.15674827    -0.90300
O1330       O  0.72386269  0.39477700  0.15314731    -0.93100
C1331       C  0.54137344  0.26011637  0.19710163     1.00700
C1332       C  0.59720633  0.38015250  0.12901416     1.13600
C1333       C  0.59333870  0.18417871  0.13710485     1.04400
O1334       O  0.63816402  0.18917930  0.20731383    -0.95300
O1335       O  0.71765676  0.24395081  0.19413193    -0.91000
O1336       O  0.75485002  0.31070561  0.20767877    -0.84100
C1337       C  0.74578750  0.27067897  0.20571180     1.11000
O1338       O  0.68522372  0.33837152  0.07640290    -0.97200
Zr1339     Zr  0.70998313  0.34661047  0.11940114     1.88900
O1340       O  0.78954426  0.38664715  0.16308446    -0.73900
O1341       O  0.69431192  0.21004764  0.14854538    -0.53100
O1342       O  0.72295188  0.30011975  0.09293444    -0.97800
O1343       O  0.73664577  0.41647217  0.09385876    -0.55000
O1344       O  0.77448411  0.37315146  0.12127647    -0.74400
C1345       C  0.79767496  0.38636858  0.13892191     0.98000
O1346       O  0.76934560  0.38671320  0.22898117    -0.63200
O1347       O  0.64471695  0.43150638  0.19455512    -0.58000
O1348       O  0.75442750  0.43280937  0.20529001    -0.94700
O1349       O  0.71988827  0.45934359  0.18684312    -0.93100
O1350       O  0.61362071  0.35006523  0.24027036    -0.93500
O1351       O  0.65085361  0.31210361  0.26105886    -0.92300
C1352       C  0.74568818  0.46267871  0.20097640     1.16800
H1353       H  0.59872404  0.34189267  0.18292209     0.32700
H1354       H  0.68635939  0.28142633  0.22264725     0.43600
H1355       H  0.74496025  0.42277431  0.14836303     0.37100
H1356       H  0.65183656  0.26067013  0.11966700     0.33600
H1357       H  0.58613984  0.23566367  0.25672295     0.25400
H1358       H  0.67970273  0.17899087  0.15483220     0.31300
H1359       H  0.74009550  0.29408574  0.10288217     0.37200
H1360       H  0.63674453  0.37795968  0.24011150     0.31700
H1361       H  0.65390303  0.46189122  0.18750350     0.30600
H1362       H  0.69629852  0.48869391  0.14366104     0.32300
H1363       H  0.75934574  0.43581650  0.10225759     0.31200
H1364       H  0.67767658  0.33090313  0.25850181     0.35200
H1365       H  0.75886307  0.36194671  0.24240959     0.27900
H1366       H  0.55083351  0.24854023  0.10875137     0.32200
H1367       H  0.70666412  0.35217036  0.06375747     0.35000
H1368       H  0.61834016  0.41665409  0.19138328     0.27600
H1369       H  0.79398775  0.39136208  0.22402607     0.40500
H1370       H  0.61281814  0.17129447  0.20210742     0.30600
H1371       H  0.58655269  0.21182981  0.23212925     0.38200
H1372       H  0.71988431  0.42799235  0.09759293     0.30000
H1373       H  0.68771938  0.21147195  0.13031133     0.30100
H1374       H  0.58869356  0.26611673  0.09319903     0.30400
C1375       C  0.94746731  0.45807141  0.09707059     0.85800
C1376       C  0.96798614  0.43338809  0.10406974    -0.54400
C1377       C  0.50232542  0.44692931  0.09410987     0.08800
C1378       C  0.51429738  0.99111191  0.07591422     0.19700
C1379       C  0.97247993  0.00327232  0.10389747    -0.55100
C1380       C  0.50630907  0.01966573  0.09349600     0.08900
C1381       C  0.95083718  0.46474496  0.06706937    -0.54700
C1382       C  0.48627381  0.47962701  0.05724199     0.09400
H1383       H  0.95592371  0.40399089  0.11708700     0.13900
H1384       H  0.54300304  0.00722433  0.06780319    -0.00300
H1385       H  0.96276487  0.01993926  0.11618638     0.14200
H1386       H  0.92762553  0.45499261  0.05505399     0.14000
C1387       C  0.89341541  0.19292904  0.23675889     0.85800
C1388       C  0.86864005  0.14535298  0.23126891    -0.54400
C1389       C  0.83423681  0.12743477  0.24213912     0.08800
C1390       C  0.82743619  0.15780618  0.25885085     0.19700
C1391       C  0.87200514  0.21613940  0.22861263    -0.55100
C1392       C  0.83745826  0.19822314  0.24012547     0.08900
C1393       C  0.89232129  0.19134868  0.26670942    -0.54700
C1394       C  0.85795844  0.17343313  0.27834333     0.09400
H1395       H  0.87641601  0.12626161  0.21964464     0.13900
H1396       H  0.79970176  0.14276835  0.26851184    -0.00300
H1397       H  0.88317598  0.24391614  0.21432324     0.14200
H1398       H  0.91658154  0.20311127  0.27784063     0.14000
C1399       C  0.84350922  0.38564229  0.10798479    -0.27000
C1400       C  0.83620934  0.40176234  0.13039277    -0.15000
C1401       C  0.86566950  0.43157714  0.14404584     0.35600
C1402       C  0.90143455  0.44705098  0.13378517    -0.26400
C1403       C  0.90859627  0.43526206  0.10949237    -0.15700
C1404       C  0.87935465  0.40081523  0.09795892     0.36700
N1405       N  0.88599949  0.38097962  0.07637055    -0.89900
H1406       H  0.82108674  0.36064658  0.09832420     0.17800
H1407       H  0.92366161  0.46885989  0.14492220     0.17800
N1408       N  0.85938025  0.44697386  0.16786385    -0.88900
H1409       H  0.86147191  0.35635305  0.07015410     0.35100
H1410       H  0.90083784  0.36605850  0.08300945     0.40200
H1411       H  0.84686127  0.46561592  0.16321364     0.39900
H1412       H  0.88409498  0.46779242  0.17578596     0.34800
C1413       C  0.55426960  0.14033228  0.10218105    -0.27000
C1414       C  0.57254813  0.14208543  0.12503886    -0.15000
C1415       C  0.57160831  0.10365223  0.13561332     0.35600
C1416       C  0.55212759  0.06467830  0.12364209    -0.26400
C1417       C  0.53321443  0.06288451  0.10134318    -0.15700
C1418       C  0.53435085  0.10099320  0.09036193     0.36700
N1419       N  0.51492645  0.09942535  0.06745434    -0.89900
H1420       H  0.55525767  0.16962140  0.09362491     0.17800
H1421       H  0.55025635  0.03510496  0.13260094     0.17800
N1422       N  0.58911819  0.10346632  0.15914508    -0.88900
H1423       H  0.51928214  0.13040228  0.06141763     0.35100
H1424       H  0.48699509  0.08040591  0.07252318     0.40200
H1425       H  0.60789062  0.09283166  0.15520715     0.39900
H1426       H  0.56926853  0.08100310  0.17294125     0.34800
C1427       C  0.53992638  0.36963043  0.10905127    -0.27000
C1428       C  0.57497258  0.39840722  0.11701209    -0.15000
C1429       C  0.58671990  0.44379980  0.11469110     0.35600
C1430       C  0.56298916  0.45835125  0.10611185    -0.26400
C1431       C  0.52734509  0.42935801  0.09999298    -0.15700
C1432       C  0.51607283  0.38459359  0.10076506     0.36700
N1433       N  0.98080313  0.35962326  0.09388034    -0.89900
H1434       H  0.53032316  0.33501237  0.11000190     0.17800
H1435       H  0.57220836  0.49285074  0.10541040     0.17800
N1436       N  0.62227590  0.47640321  0.12107460    -0.88900
H1437       H  0.96663480  0.33744146  0.10983376     0.35100
H1438       H  0.98406050  0.34250481  0.07907656     0.40200
H1439       H  0.64205453  0.47305340  0.11031328     0.39900
H1440       H  0.62512838  0.47310212  0.14105020     0.34800
C1441       C  0.82777341  0.26163644  0.22943405    -0.27000
C1442       C  0.81261708  0.21638855  0.23405667    -0.15000
C1443       C  0.77474844  0.18979046  0.23143033     0.35600
C1444       C  0.75359076  0.20856013  0.22311426    -0.26400
C1445       C  0.76908478  0.25364203  0.21724607    -0.15700
C1446       C  0.80676392  0.28044766  0.22114045     0.36700
N1447       N  0.82499673  0.32672769  0.21625353    -0.89900
H1448       H  0.85652941  0.28287342  0.23204315     0.17800
H1449       H  0.72477149  0.18729499  0.22072415     0.17800
N1450       N  0.75754181  0.14355009  0.23619920    -0.88900
H1451       H  0.81345267  0.33919861  0.22905486     0.35100
H1452       H  0.82166005  0.33453795  0.19698423     0.40200
H1453       H  0.74469089  0.12940518  0.21943080     0.39900
H1454       H  0.73722299  0.13405932  0.25113433     0.34800
C1455       C  0.77461671  0.04301717  0.19802838    -0.27000
C1456       C  0.76594547  0.00460341  0.21306421    -0.15000
C1457       C  0.77694310  0.00658512  0.23889348     0.35600
C1458       C  0.79683160  0.04735233  0.24903507    -0.26400
C1459       C  0.80620334  0.08567174  0.23366459    -0.15700
C1460       C  0.79568606  0.08358092  0.20772736     0.36700
N1461       N  0.80927306  0.12257965  0.19064353    -0.89900
H1462       H  0.76666325  0.04140572  0.17805893     0.17800
H1463       H  0.80680241  0.04933575  0.26838311     0.17800
N1464       N  0.76185718  0.46765441  0.25594350    -0.88900
H1465       H  0.79977247  0.11527753  0.17198663     0.35100
H1466       H  0.79896681  0.14174118  0.19772493     0.40200
H1467       H  0.73328519  0.45139566  0.25699512     0.39900
H1468       H  0.76989698  0.47509660  0.27490533     0.34800
C1469       C  0.94013828  0.19587856  0.20259017    -0.27000
C1470       C  0.93182708  0.21453874  0.22349113    -0.15000
C1471       C  0.95993760  0.25412160  0.23160953     0.35600
C1472       C  0.49566513  0.26681706  0.22472407    -0.26400
C1473       C  0.50300494  0.24526365  0.20533670    -0.15700
C1474       C  0.97612304  0.21155122  0.19283716     0.36700
N1475       N  0.98406954  0.19000477  0.17282960    -0.89900
H1476       H  0.91897003  0.16915603  0.19336597     0.17800
H1477       H  0.51808921  0.29482786  0.23239235     0.17800
N1478       N  0.95198064  0.27815589  0.24987262    -0.88900
H1479       H  0.96006936  0.16386999  0.16708373     0.35100
H1480       H  0.49433977  0.17404302  0.18090917     0.40200
H1481       H  0.93603298  0.28960733  0.24071451     0.39900
H1482       H  0.97592298  0.30565273  0.25439896     0.34800
C1483       C  0.82026248  0.13175034  0.34823056    -0.27000
C1484       C  0.84086213  0.16889860  0.36169862    -0.15000
C1485       C  0.86676328  0.20755197  0.34760824     0.35600
C1486       C  0.87214354  0.20824745  0.32051516    -0.26400
C1487       C  0.85149183  0.17110922  0.30704428    -0.15700
C1488       C  0.82529911  0.13257951  0.32112828     0.36700
N1489       N  0.80446005  0.09384946  0.30816045    -0.89900
H1490       H  0.80035911  0.10166919  0.35884013     0.17800
H1491       H  0.89201708  0.23829189  0.30985634     0.17800
N1492       N  0.88660426  0.24659220  0.36054340    -0.88900
H1493       H  0.77675568  0.08389131  0.31167213     0.35100
H1494       H  0.80933791  0.06961834  0.31649357     0.40200
H1495       H  0.88093997  0.27009907  0.35208973     0.39900
H1496       H  0.91450916  0.25756398  0.35718290     0.34800
C1497       C  0.69597846  0.11636704  0.44080907    -0.27000
C1498       C  0.67951305  0.07561234  0.45509603    -0.15000
C1499       C  0.70216300  0.05829497  0.46309754     0.35600
C1500       C  0.73990224  0.08144539  0.45596584    -0.26400
C1501       C  0.75665087  0.12264185  0.44169293    -0.15700
C1502       C  0.73371485  0.13970096  0.43414865     0.36700
N1503       N  0.74859065  0.18069448  0.41918849    -0.89900
H1504       H  0.67931748  0.13077384  0.43506157     0.17800
H1505       H  0.75542920  0.06590555  0.46181347     0.17800
N1506       N  0.68842464  0.01808277  0.47897933    -0.88900
H1507       H  0.74264785  0.20132175  0.42954377     0.35100
H1508       H  0.73541775  0.17569266  0.40169775     0.40200
H1509       H  0.66023575  0.50019384  0.48419882     0.39900
H1510       H  0.70166665  0.02506102  0.49645409     0.34800
C1511       C  0.91432644  0.33638873  0.43271893    -0.27000
C1512       C  0.94554215  0.33966348  0.44461541    -0.15000
C1513       C  0.94820508  0.30127537  0.44854930     0.35600
C1514       C  0.91898433  0.26122688  0.44203628    -0.26400
C1515       C  0.88664666  0.25788856  0.43223665    -0.15700
C1516       C  0.88506306  0.29641686  0.42687037     0.36700
N1517       N  0.85415610  0.29608953  0.41542400    -0.89900
H1518       H  0.91158124  0.36521350  0.42942642     0.17800
H1519       H  0.92107338  0.23205335  0.44563821     0.17800
N1520       N  0.97871426  0.30081940  0.46036777    -0.88900
H1521       H  0.83110028  0.27792907  0.42805588     0.35100
H1522       H  0.84996715  0.28106358  0.39794044     0.40200
H1523       H  0.49812525  0.32846339  0.46506725     0.39900
H1524       H  0.48968403  0.28641901  0.44766998     0.34800
C1525       C  0.89018385  0.13771945  0.46510390    -0.27000
C1526       C  0.88327727  0.13534680  0.43856429    -0.15000
C1527       C  0.90281313  0.12306882  0.42166935     0.35600
C1528       C  0.92885814  0.11340574  0.43161261    -0.26400
C1529       C  0.93528383  0.11422734  0.45846554    -0.15700
C1530       C  0.91580960  0.12714242  0.47535129     0.36700
N1531       N  0.92105282  0.12823165  0.50285633    -0.89900
H1532       H  0.87518149  0.14756542  0.47794682     0.17800
H1533       H  0.94298503  0.10329149  0.41817336     0.17800
N1534       N  0.89514095  0.11733922  0.39473086    -0.88900
H1535       H  0.90304089  0.13595228  0.51253540     0.35100
H1536       H  0.94738892  0.15348940  0.50534238     0.40200
H1537       H  0.90092317  0.14705557  0.38526761     0.39900
H1538       H  0.86733233  0.09539109  0.39357645     0.34800
C1539       C  0.80210161  0.45454845  0.54973913    -0.27000
C1540       C  0.78280785  0.40926303  0.55738315    -0.15000
C1541       C  0.80376090  0.38788616  0.56025911     0.35600
C1542       C  0.84158357  0.41057444  0.55351394    -0.26400
C1543       C  0.86023747  0.45491170  0.54456103    -0.15700
C1544       C  0.84017785  0.47723390  0.54297219     0.36700
N1545       N  0.85694777  0.02331046  0.54032189    -0.89900
H1546       H  0.78792228  0.47309723  0.54937673     0.17800
H1547       H  0.85679463  0.39314148  0.55512592     0.17800
N1548       N  0.78672807  0.34300130  0.57000768    -0.88900
H1549       H  0.83849603  0.03506739  0.54182037     0.35100
H1550       H  0.86587589  0.02820818  0.52067192     0.40200
H1551       H  0.77817362  0.34095273  0.58950824     0.39900
H1552       H  0.80554707  0.33167164  0.56989859     0.34800
C1553       C  0.62433764  0.19803645  0.56060578    -0.27000
C1554       C  0.59320775  0.19492599  0.54870578    -0.15000
C1555       C  0.58937833  0.23244526  0.54632090     0.35600
C1556       C  0.61788308  0.27246782  0.55402847    -0.26400
C1557       C  0.65039988  0.27591898  0.56374592    -0.15700
C1558       C  0.65257360  0.23769484  0.56825853     0.36700
N1559       N  0.68350135  0.23926856  0.58062781    -0.89900
H1560       H  0.62732739  0.16930650  0.56303893     0.17800
H1561       H  0.61532044  0.30146317  0.55146330     0.17800
N1562       N  0.55739698  0.23026123  0.53539886    -0.88900
H1563       H  0.68093766  0.20829975  0.58273738     0.35100
H1564       H  0.68321612  0.24877700  0.59947114     0.40200
H1565       H  0.55745397  0.22320175  0.51595358     0.39900
H1566       H  0.55861102  0.26053175  0.53521764     0.34800
C1567       C  0.61007791  0.41849249  0.56574139    -0.27000
C1568       C  0.60291329  0.41691698  0.53903702    -0.15000
C1569       C  0.62236175  0.40394224  0.52200653     0.35600
C1570       C  0.64987341  0.39659625  0.53157522    -0.26400
C1571       C  0.65776646  0.40039713  0.55785639    -0.15700
C1572       C  0.63712468  0.41015002  0.57519073     0.36700
N1573       N  0.64417539  0.41255247  0.60232705    -0.89900
H1574       H  0.59526086  0.42722084  0.57948296     0.17800
H1575       H  0.66475193  0.38692946  0.51848119     0.17800
N1576       N  0.61473995  0.39712167  0.49516618    -0.88900
H1577       H  0.62010695  0.39017428  0.61296768     0.35100
H1578       H  0.65079734  0.44366635  0.60740510     0.40200
H1579       H  0.62034304  0.42634284  0.48512649     0.39900
H1580       H  0.58718022  0.37418234  0.49405786     0.34800
C1581       C  0.98867013  0.01178203  0.98235318    -0.27000
C1582       C  0.51563508  0.00102417  0.97231670    -0.15000
C1583       C  0.53239125  0.48360741  0.99216035     0.35600
C1584       C  0.52267128  0.47798570  0.01897337    -0.26400
C1585       C  0.49628001  0.48774041  0.02877404    -0.15700
C1586       C  0.97969427  0.00675352  0.00935451     0.36700
N1587       N  0.95415926  0.01924936  0.01927043    -0.89900
H1588       H  0.97594245  0.02469314  0.96916491     0.17800
H1589       H  0.53522112  0.46495829  0.03224741     0.17800
N1590       N  0.55914587  0.47269728  0.98264716    -0.88900
H1591       H  0.94417012  0.03055609  0.00404587     0.35100
H1592       H  0.96839996  0.04535747  0.03066761     0.40200
H1593       H  0.54601383  0.44668384  0.97100358     0.39900
H1594       H  0.56925943  0.46189445  0.99803805     0.34800
C1595       C  0.70148965  0.37614096  0.67994502    -0.27000
C1596       C  0.67547652  0.33359038  0.68900302    -0.15000
C1597       C  0.65910994  0.30183862  0.67096535     0.35600
C1598       C  0.66810062  0.31322330  0.64429155    -0.26400
C1599       C  0.69369884  0.35571090  0.63514322    -0.15700
C1600       C  0.71056244  0.38752541  0.65311184     0.36700
N1601       N  0.73580907  0.43161064  0.64414461    -0.89900
H1602       H  0.71382326  0.40091669  0.69362320     0.17800
H1603       H  0.65547220  0.28839530  0.63067851     0.17800
N1604       N  0.63376278  0.25768279  0.67972794    -0.88900
H1605       H  0.76056653  0.44047435  0.65273185     0.35100
H1606       H  0.72561686  0.45131457  0.65073109     0.40200
H1607       H  0.64401203  0.23802831  0.67316073     0.39900
H1608       H  0.60910420  0.24894403  0.67101597     0.34800
C1609       C  0.96679249  0.34959195  0.89282008    -0.27000
C1610       C  0.94279986  0.34626159  0.87334986    -0.15000
C1611       C  0.93882289  0.38304266  0.86621481     0.35600
C1612       C  0.95821300  0.42148394  0.87866922    -0.26400
C1613       C  0.98190455  0.42458276  0.89804153    -0.15700
C1614       C  0.98647491  0.38844143  0.90512535     0.36700
N1615       N  0.50260469  0.38677915  0.93083999    -0.89900
H1616       H  0.97016515  0.32184650  0.89853673     0.17800
H1617       H  0.95625959  0.44984038  0.87204625     0.17800
N1618       N  0.91626622  0.38233723  0.84556966    -0.88900
H1619       H  0.50080703  0.35659159  0.93545900     0.35100
H1620       H  0.49158211  0.39379934  0.94709574     0.40200
H1621       H  0.93264612  0.40680787  0.83119198     0.39900
H1622       H  0.89666450  0.38959578  0.85304820     0.34800
C1623       C  0.66300267  0.05179148  0.89273595    -0.27000
C1624       C  0.67748850  0.08460943  0.87248918    -0.15000
C1625       C  0.65623420  0.10223604  0.86249606     0.35600
C1626       C  0.62051310  0.08646243  0.87309156    -0.26400
C1627       C  0.60541957  0.05321077  0.89358047    -0.15700
C1628       C  0.62720596  0.03546849  0.90301285     0.36700
N1629       N  0.60958966  0.49371577  0.92229289    -0.89900
H1630       H  0.67941911  0.03815961  0.90034892     0.17800
H1631       H  0.60490116  0.10007679  0.86448952     0.17800
N1632       N  0.67114316  0.13636000  0.84177729    -0.88900
H1633       H  0.61004400  0.46786373  0.91369765     0.35100
H1634       H  0.62628011  0.50137301  0.93810621     0.40200
H1635       H  0.69288350  0.16357232  0.84893355     0.39900
H1636       H  0.65190949  0.14563439  0.83642860     0.34800
C1637       C  0.97501520  0.11902094  0.88540683    -0.27000
C1638       C  0.93950904  0.09076038  0.87805198    -0.15000
C1639       C  0.92618484  0.04524168  0.88201184     0.35600
C1640       C  0.94898540  0.02970172  0.89193875    -0.26400
C1641       C  0.98507701  0.05794291  0.89766751    -0.15700
C1642       C  0.99768553  0.10317393  0.89513999     0.36700
N1643       N  0.03331520  0.13331608  0.90286555    -0.89900
H1644       H  0.98569886  0.15385629  0.88322126     0.17800
H1645       H  0.43772160  0.99105643  0.89424457     0.17800
N1646       N  0.88964760  0.01460822  0.87585243    -0.88900
H1647       H  0.03030022  0.15117721  0.91729871     0.35100
H1648       H  0.04784515  0.15488768  0.88675006     0.40200
H1649       H  0.87172840  0.01706204  0.88921525     0.39900
H1650       H  0.88496873  0.98272242  0.87852493     0.34800
C1651       C  0.73571918  0.30246794  0.77128103    -0.27000
C1652       C  0.70054086  0.27469165  0.76361898    -0.15000
C1653       C  0.68866565  0.22977627  0.76380214     0.35600
C1654       C  0.71095062  0.21326012  0.77332584    -0.26400
C1655       C  0.74555576  0.24077752  0.78237784    -0.15700
C1656       C  0.75819444  0.28622089  0.78066179     0.36700
N1657       N  0.79374977  0.31635971  0.78854059    -0.89900
H1658       H  0.74572531  0.33710140  0.77062918     0.17800
H1659       H  0.70081633  0.17856170  0.77376900     0.17800
N1660       N  0.65430723  0.20082876  0.75373594    -0.88900
H1661       H  0.79060396  0.33370738  0.80325305     0.35100
H1662       H  0.80829349  0.33835222  0.77259478     0.40200
H1663       H  0.63852871  0.17681028  0.76850109     0.39900
H1664       H  0.65926434  0.18575258  0.73846175     0.34800
C1665       C  0.53509580  0.25440401  0.80209754    -0.27000
C1666       C  0.00604327  0.24235763  0.78410794    -0.15000
C1667       C  0.01660204  0.25720078  0.75766842     0.35600
C1668       C  0.55074230  0.25427007  0.74916945    -0.26400
C1669       C  0.57988031  0.27380814  0.76555128    -0.15700
C1670       C  0.57147958  0.27181105  0.79258993     0.36700
N1671       N  0.59995678  0.28798061  0.81054140    -0.89900
H1672       H  0.52961444  0.25442750  0.82276521     0.17800
H1673       H  0.55523073  0.25168909  0.72882796     0.17800
N1674       N  0.99128763  0.25903935  0.74010046    -0.88900
H1675       H  0.59511848  0.26252979  0.82425709     0.35100
H1676       H  0.59834973  0.31215838  0.82035710     0.40200
H1677       H  0.98959046  0.24043639  0.72456068     0.39900
H1678       H  0.00170916  0.29128150  0.73268117     0.34800
C1679       C  0.71830962  0.48091793  0.76994345    -0.27000
C1680       C  0.74023583  0.48293261  0.79063235    -0.15000
C1681       C  0.74310024  0.44556638  0.79847777     0.35600
C1682       C  0.72453368  0.40779685  0.78525447    -0.26400
C1683       C  0.70239884  0.40592751  0.76501036    -0.15700
C1684       C  0.69910669  0.44259455  0.75733651     0.36700
N1685       N  0.67576868  0.44066932  0.73699850    -0.89900
H1686       H  0.71693358  0.00744697  0.76211780     0.17800
H1687       H  0.72544233  0.37876342  0.79190401     0.17800
N1688       N  0.76372387  0.44538662  0.82037400    -0.88900
H1689       H  0.69158745  0.46487587  0.72233626     0.35100
H1690       H  0.65616997  0.44778796  0.74465147     0.40200
H1691       H  0.76348528  0.41571585  0.82316224     0.39900
H1692       H  0.75052700  0.44822011  0.83702640     0.34800
Zr1693     Zr  0.77628720  0.62931579  0.81103515     2.17500
O1694       O  0.74354825  0.61550347  0.77106166    -0.52000
O1695       O  0.72128598  0.60194932  0.83945254    -0.75200
O1696       O  0.75204442  0.55414342  0.79959802    -0.82000
O1697       O  0.79672686  0.74733066  0.80698780    -0.83700
O1698       O  0.78957666  0.52952495  0.81454333    -0.79300
O1699       O  0.75609966  0.68052557  0.79531639    -0.91000
O1700       O  0.73773508  0.60828640  0.88146554    -0.76900
O1701       O  0.78785750  0.59460902  0.84789553    -0.86400
O1702       O  0.79158014  0.67723588  0.84500244    -0.86100
O1703       O  0.82647808  0.61887244  0.79737522    -0.72900
O1704       O  0.82916380  0.69523806  0.79402206    -0.85000
Zr1705     Zr  0.90770642  0.69971396  0.85260308     2.26400
Zr1706     Zr  0.83919036  0.58652746  0.83502993     2.06300
Zr1707     Zr  0.84482807  0.74213681  0.82859646     2.10000
Zr1708     Zr  0.80359730  0.64291447  0.88152157     1.78800
O1709       O  0.87436045  0.80255496  0.79538355    -0.93800
O1710       O  0.78125441  0.57492272  0.90843705    -0.41600
O1711       O  0.85702422  0.70926685  0.86612126    -0.78300
O1712       O  0.85469082  0.63368927  0.86963317    -0.97000
O1713       O  0.89246657  0.65155701  0.81872282    -0.90300
O1714       O  0.89574318  0.73368766  0.81551950    -0.93100
C1715       C  0.71401379  0.59770900  0.86415343     1.00700
C1716       C  0.76750348  0.72148403  0.79633869     1.13600
C1717       C  0.76159507  0.52469339  0.80263634     1.04400
O1718       O  0.81149927  0.52672478  0.86870791    -0.95300
O1719       O  0.88796436  0.58102976  0.85578160    -0.91000
O1720       O  0.92788692  0.64788186  0.86788506    -0.84100
C1721       C  0.91685612  0.60696573  0.86683036     1.11000
O1722       O  0.85355680  0.67320014  0.73954105    -0.97200
Zr1723     Zr  0.87956125  0.68473414  0.78208738     1.88900
O1724       O  0.96287314  0.72789724  0.82393980    -0.73900
O1725       O  0.86276153  0.55114773  0.80717666    -0.53100
O1726       O  0.89107768  0.63550113  0.75728190    -0.97800
O1727       O  0.90549206  0.75174277  0.75374566    -0.55000
O1728       O  0.94441418  0.71297158  0.78292577    -0.74400
C1729       C  0.96920529  0.72773344  0.79938601     0.98000
O1730       O  0.94058324  0.71999326  0.89242038    -0.63200
O1731       O  0.82313923  0.78054184  0.85549356    -0.58000
O1732       O  0.93054446  0.77414652  0.86542300    -0.94700
O1733       O  0.89251038  0.79797931  0.85067373    -0.93100
O1734       O  0.78622506  0.68815828  0.90548014    -0.93500
O1735       O  0.82818270  0.65441758  0.92452437    -0.92300
C1736       C  0.92033428  0.80312674  0.86280388     1.16800
H1737       H  0.77208376  0.68330849  0.84925836     0.32700
H1738       H  0.86053427  0.62132545  0.88475566     0.43600
H1739       H  0.91672901  0.76145061  0.81013527     0.37100
H1740       H  0.81980631  0.59997357  0.78328751     0.33600
H1741       H  0.76442097  0.55214081  0.89748470     0.25400
H1742       H  0.84848342  0.51981938  0.81290457     0.31300
H1743       H  0.90885465  0.63066172  0.76722187     0.37200
H1744       H  0.80545301  0.71831915  0.90023086     0.31700
H1745       H  0.82552484  0.80522928  0.84391348     0.30600
H1746       H  0.87618568  0.82790539  0.80391313     0.32300
H1747       H  0.91714283  0.74614238  0.73859285     0.31200
H1748       H  0.85453355  0.67536093  0.92111822     0.35200
H1749       H  0.92707827  0.69457633  0.90519853     0.27900
H1750       H  0.71942082  0.58947526  0.77541734     0.32200
H1751       H  0.82727899  0.66311461  0.74330276     0.35000
H1752       H  0.79646670  0.76100705  0.85840862     0.27600
H1753       H  0.96427805  0.72116359  0.88854836     0.40500
H1754       H  0.81307620  0.50254379  0.86110028     0.30600
H1755       H  0.80249709  0.57005165  0.90963804     0.38200
H1756       H  0.92628875  0.77336692  0.76293776     0.30000
H1757       H  0.85443229  0.55364323  0.78964311     0.30100
H1758       H  0.75652282  0.60592832  0.75905693     0.30400
C1759       C  0.61812936  0.79317527  0.75764711     0.85800
C1760       C  0.63864344  0.76916952  0.76665581    -0.54400
C1761       C  0.67492404  0.79008225  0.75869737     0.08800
C1762       C  0.68744713  0.83342052  0.74229026     0.19700
C1763       C  0.63985345  0.83882506  0.76684449    -0.55100
C1764       C  0.67577109  0.85980535  0.75898931     0.08900
C1765       C  0.62546209  0.79935824  0.72773383    -0.54700
C1766       C  0.66161297  0.82052125  0.71972275     0.09400
H1767       H  0.62567823  0.73858625  0.77858452     0.13900
H1768       H  0.71689927  0.85079483  0.73584692    -0.00300
H1769       H  0.62785266  0.85326771  0.77906576     0.14200
H1770       H  0.60472230  0.78780449  0.71362125     0.14000
C1771       C  0.56451946  0.53159066  0.90622825     0.85800
C1772       C  0.54296275  0.98701286  0.89658838    -0.54400
C1773       C  0.00715363  0.96858833  0.90554869     0.08800
C1774       C  0.99760001  0.99712903  0.92220134     0.19700
C1775       C  0.54337405  0.55553409  0.89815457    -0.55100
C1776       C  0.00892932  0.53855127  0.90716981     0.08900
C1777       C  0.56043255  0.52746167  0.93616083    -0.54700
C1778       C  0.52504063  0.50680929  0.94617475     0.09400
H1779       H  0.55379504  0.97154854  0.88418117     0.13900
H1780       H  0.96864759  0.98063112  0.92982095    -0.00300
H1781       H  0.55439535  0.58498349  0.88546820     0.14200
H1782       H  0.58367707  0.54031643  0.94832846     0.14000
Zr1783     Zr  0.98974550  0.56093146  0.52140224     2.17500
O1784       O  0.96640130  0.58129411  0.55881938    -0.52000
O1785       O  0.96702035  0.59912926  0.49317095    -0.75200
O1786       O  0.53563976  0.63214900  0.53561128    -0.82000
O1787       O  0.90328546  0.94659664  0.52445793    -0.83700
O1788       O  0.59131185  0.64281527  0.52135340    -0.79300
O1789       O  0.92203705  0.01410643  0.53774091    -0.91000
O1790       O  0.97585219  0.58767101  0.45140887    -0.76900
O1791       O  0.53339671  0.58965983  0.48482750    -0.86400
O1792       O  0.96208924  0.01349474  0.48743981    -0.86100
O1793       O  0.54050309  0.55426693  0.53530888    -0.72900
O1794       O  0.97642292  0.98747311  0.53730709    -0.85000
Zr1795     Zr  0.54949408  0.97077576  0.47571973     2.26400
Zr1796     Zr  0.58414944  0.58264809  0.49870167     2.06300
Zr1797     Zr  0.95206581  0.94325186  0.50180602     2.10000
Zr1798     Zr  0.00992053  0.54968122  0.44946508     1.78800
O1799       O  0.92515860  0.87956974  0.53281693    -0.93800
O1800       O  0.54743700  0.61725988  0.42628144    -0.41600
O1801       O  0.99422239  0.97137663  0.46462925    -0.78300
O1802       O  0.56135289  0.54128565  0.46167154    -0.97000
O1803       O  0.57263371  0.51142174  0.51237314    -0.90300
O1804       O  0.50604140  0.93970298  0.51237595    -0.96100
C1805       C  0.96289413  0.60201138  0.46861902     1.00700
C1806       C  0.89740644  0.97391976  0.53589844     1.13600
C1807       C  0.57121776  0.65420534  0.53386321     1.04400
O1808       O  0.61527615  0.64687628  0.46823703    -0.95300
O1809       O  0.63551520  0.58113353  0.47928712    -0.91000
O1810       O  0.61514831  0.51546000  0.46263129    -0.84100
C1811       C  0.64066897  0.55425653  0.46680298     1.11000
O1812       O  0.51358599  0.99226731  0.59151183    -0.97200
Zr1813     Zr  0.53092889  0.98435059  0.54753770     1.88900
O1814       O  0.57378910  0.93407279  0.50382470    -0.73900
O1815       O  0.63437226  0.60363163  0.52754839    -0.53100
O1816       O  0.57725151  0.52624765  0.57531619    -0.97800
O1817       O  0.99191952  0.91399551  0.57430806    -0.55000
O1818       O  0.56677508  0.94813927  0.54529500    -0.74400
C1819       C  0.57914461  0.93277133  0.52825315     0.98000
O1820       O  0.56634890  0.94428481  0.43795265    -0.63200
O1821       O  0.89814150  0.91385882  0.47608039    -0.58000
O1822       O  0.50235108  0.90256354  0.45746072    -0.94700
O1823       O  0.94490615  0.88627738  0.47590983    -0.93100
O1824       O  0.95165494  0.00436664  0.42541962    -0.93500
O1825       O  0.53137877  0.54457346  0.40542792    -0.92300
C1826       C  0.96525577  0.87655315  0.46228838     1.16800
H1827       H  0.93901210  0.01128537  0.48315606     0.32700
H1828       H  0.57930570  0.55316268  0.44716317     0.43600
H1829       H  0.99809331  0.90846221  0.51884961     0.37100
H1830       H  0.55010624  0.57118950  0.55010726     0.33600
H1831       H  0.53137844  0.62119892  0.41390588     0.25400
H1832       H  0.65044631  0.63524179  0.52341922     0.31300
H1833       H  0.59035338  0.00579257  0.58062123     0.37200
H1834       H  0.95518407  0.53133454  0.41273328     0.31700
H1835       H  0.87846676  0.89010430  0.48753794     0.30600
H1836       H  0.89987751  0.86174019  0.52746918     0.32300
H1837       H  0.50601035  0.91413537  0.58693032     0.31200
H1838       H  0.53859241  0.52176213  0.40707862     0.35200
H1839       H  0.57537213  0.96856913  0.42424964     0.27900
H1840       H  0.96945953  0.61027490  0.55343961     0.32200
H1841       H  0.50722298  0.01576455  0.58937278     0.35000
H1842       H  0.89094090  0.93666851  0.47439916     0.27600
H1843       H  0.58824862  0.94229858  0.44267828     0.40500
H1844       H  0.61850648  0.63595751  0.45163885     0.30600
H1845       H  0.55155140  0.63840736  0.43938932     0.38200
H1846       H  0.96645474  0.90783302  0.57246346     0.30000
H1847       H  0.62340736  0.60109277  0.54522418     0.30100
H1848       H  0.98403005  0.58652555  0.57246180     0.30400
C1849       C  0.79682681  0.64360242  0.43311451     0.85800
C1850       C  0.79918117  0.64421505  0.40335475    -0.54400
C1851       C  0.83368812  0.66450013  0.39209863     0.08800
C1852       C  0.86355126  0.68259935  0.41187335     0.19700
C1853       C  0.82048098  0.62357745  0.44241062    -0.55100
C1854       C  0.85509006  0.64409337  0.43121822     0.08900
C1855       C  0.82021712  0.69210055  0.43909912    -0.54700
C1856       C  0.85544664  0.71230982  0.42800819     0.09400
H1857       H  0.77509511  0.62958449  0.39203011     0.13900
H1858       H  0.89195500  0.69886094  0.40316868    -0.00300
H1859       H  0.81255427  0.59802774  0.45782569     0.14200
H1860       H  0.81057097  0.70769686  0.45230698     0.14000
C1861       C  0.74061787  0.88437585  0.56970798     0.85800
C1862       C  0.71647144  0.83669984  0.56201342    -0.54400
C1863       C  0.68048725  0.81711944  0.57162553     0.08800
C1864       C  0.67248589  0.84637118  0.58823615     0.19700
C1865       C  0.71886660  0.90660327  0.55993844    -0.55100
C1866       C  0.68341714  0.88659569  0.56961625     0.08900
C1867       C  0.73604312  0.88121125  0.59946225    -0.54700
C1868       C  0.70081346  0.86125736  0.60924386     0.09400
H1869       H  0.72619725  0.82110846  0.54886418     0.13900
H1870       H  0.64369545  0.83054006  0.59622995    -0.00300
H1871       H  0.72913673  0.93325876  0.54494166     0.14200
H1872       H  0.75903546  0.89262704  0.61188116     0.14000
Zr1873     Zr  0.60692330  0.78986105  0.14499354     2.17500
O1874       O  0.57275713  0.77327449  0.10562323    -0.52000
O1875       O  0.55163440  0.76300885  0.17286511    -0.75200
O1876       O  0.58415223  0.71448065  0.13349226    -0.82000
O1877       O  0.62549366  0.90711723  0.13989282    -0.83700
O1878       O  0.62118482  0.69062725  0.15040482    -0.79300
O1879       O  0.58666145  0.84022718  0.12736304    -0.91000
O1880       O  0.56654598  0.77649970  0.21477645    -0.76900
O1881       O  0.61730421  0.75626786  0.18297784    -0.86400
O1882       O  0.62032942  0.83827404  0.17863103    -0.86100
O1883       O  0.65827301  0.78058788  0.13296807    -0.72900
O1884       O  0.65985492  0.85655185  0.12882764    -0.85000
Zr1885     Zr  0.73553781  0.86212859  0.18962935     2.26400
Zr1886     Zr  0.66940044  0.74858110  0.17174127     2.06300
Zr1887     Zr  0.67352112  0.90391664  0.16321380     2.10000
Zr1888     Zr  0.63136569  0.80520517  0.21628149     1.78800
O1889       O  0.70381282  0.96621128  0.13135252    -0.93800
O1890       O  0.60613569  0.73576238  0.24203673    -0.41600
O1891       O  0.68454539  0.87152159  0.20143043    -0.78300
O1892       O  0.68282356  0.79571182  0.20636428    -0.97000
O1893       O  0.72256049  0.81423492  0.15592467    -0.90300
O1894       O  0.72553399  0.89632631  0.15173906    -0.93100
C1895       C  0.54350962  0.76314286  0.19703592     1.00700
C1896       C  0.59713465  0.88098631  0.12846305     1.13600
C1897       C  0.59374799  0.68516692  0.13750538     1.04400
O1898       O  0.64023585  0.68952255  0.20578523    -0.95300
O1899       O  0.71887282  0.74582454  0.19379805    -0.91000
O1900       O  0.75586143  0.81257776  0.20744769    -0.84100
C1901       C  0.74667884  0.77249254  0.20569906     1.11000
O1902       O  0.68911386  0.83984645  0.07462101    -0.97200
Zr1903     Zr  0.71137578  0.84736305  0.11840355     1.88900
O1904       O  0.79117644  0.88721215  0.16235320    -0.73900
O1905       O  0.69401501  0.71125286  0.14658171    -0.53100
O1906       O  0.72360472  0.79753922  0.09477838    -0.97800
O1907       O  0.73822795  0.91555938  0.09109399    -0.55000
O1908       O  0.77591918  0.87363220  0.12061762    -0.74400
C1909       C  0.79918440  0.88652329  0.13823845     0.98000
O1910       O  0.77125057  0.88913113  0.22770771    -0.63200
O1911       O  0.64879715  0.93933948  0.19006981    -0.58000
O1912       O  0.75536663  0.93422471  0.20439065    -0.94700
O1913       O  0.71933255  0.95955896  0.18714634    -0.93100
O1914       O  0.61779818  0.85374437  0.24013130    -0.93500
O1915       O  0.65254581  0.81536815  0.26032817    -0.92300
C1916       C  0.74553989  0.96326958  0.20094608     1.16800
H1917       H  0.60061660  0.84434386  0.18206676     0.32700
H1918       H  0.68798767  0.78354922  0.22190500     0.43600
H1919       H  0.74667413  0.92417251  0.14670207     0.37100
H1920       H  0.65249491  0.76160601  0.11896410     0.33600
H1921       H  0.58998344  0.73719008  0.25581552     0.25400
H1922       H  0.68011182  0.68040562  0.15342687     0.31300
H1923       H  0.73882404  0.79031526  0.10622873     0.37200
H1924       H  0.63965214  0.88277227  0.23666041     0.31700
H1925       H  0.65444932  0.96658645  0.17975007     0.30600
H1926       H  0.70209685  0.98993124  0.13947532     0.32300
H1927       H  0.76460787  0.93058931  0.09424881     0.31200
H1928       H  0.67886178  0.83706404  0.25795702     0.35200
H1929       H  0.76115555  0.86452360  0.24124023     0.27900
H1930       H  0.54867225  0.74760846  0.11072935     0.32200
H1931       H  0.71075240  0.84858184  0.06262001     0.35000
H1932       H  0.62189883  0.92123667  0.19011110     0.27600
H1933       H  0.79598299  0.89417736  0.22263070     0.40500
H1934       H  0.64225994  0.66516936  0.19884960     0.30600
H1935       H  0.58913476  0.71408757  0.23059576     0.38200
H1936       H  0.72880313  0.93318035  0.09911822     0.30000
H1937       H  0.68576168  0.71164453  0.12875157     0.30100
H1938       H  0.58512213  0.76273482  0.09375788     0.30400
C1939       C  0.94863943  0.95691955  0.09577298     0.85800
C1940       C  0.96951282  0.93285928  0.10310898    -0.54400
C1941       C  0.50220055  0.94810103  0.09267189     0.08800
C1942       C  0.51461037  0.49055665  0.07810487     0.19700
C1943       C  0.97170019  0.50423230  0.10538813    -0.55100
C1944       C  0.50675247  0.51840968  0.09628294     0.08900
C1945       C  0.95216279  0.96319184  0.06572931    -0.54700
C1946       C  0.48588851  0.97919185  0.05496273     0.09400
H1947       H  0.95763769  0.90369709  0.11632350     0.13900
H1948       H  0.54332864  0.50683870  0.06999495    -0.00300
H1949       H  0.96235832  0.52124169  0.11768168     0.14200
H1950       H  0.92901723  0.95330758  0.05365277     0.14000
C1951       C  0.89274588  0.69417347  0.23895577     0.85800
C1952       C  0.86869812  0.64741130  0.23172793    -0.54400
C1953       C  0.83384623  0.62799285  0.24210426     0.08800
C1954       C  0.82606571  0.65651255  0.26005181     0.19700
C1955       C  0.87124927  0.71753624  0.23162997    -0.55100
C1956       C  0.83620048  0.69840185  0.24253500     0.08900
C1957       C  0.89057622  0.68946447  0.26881488    -0.54700
C1958       C  0.85604991  0.67088533  0.27999940     0.09400
H1959       H  0.87765254  0.63016139  0.21935432     0.13900
H1960       H  0.79823523  0.64027263  0.26954640    -0.00300
H1961       H  0.88288799  0.74628371  0.21808769     0.14200
H1962       H  0.91433489  0.69980137  0.28036666     0.14000
C1963       C  0.84448760  0.88537237  0.10692668    -0.27000
C1964       C  0.83762028  0.90103553  0.12970632    -0.15000
C1965       C  0.86741862  0.92952767  0.14365967     0.35600
C1966       C  0.90305637  0.94493282  0.13306289    -0.26400
C1967       C  0.90977984  0.93401333  0.10834054    -0.15700
C1968       C  0.88018854  0.90021138  0.09667460     0.36700
N1969       N  0.88631237  0.88049995  0.07481397    -0.89900
H1970       H  0.82182593  0.86100432  0.09711787     0.17800
H1971       H  0.92559350  0.96617834  0.14419581     0.17800
N1972       N  0.86164225  0.94353899  0.16817297    -0.88900
H1973       H  0.86159005  0.85621148  0.06862363     0.35100
H1974       H  0.90098387  0.86518554  0.08114407     0.40200
H1975       H  0.84970787  0.96309886  0.16443753     0.39900
H1976       H  0.88652910  0.96314033  0.17629048     0.34800
C1977       C  0.55167391  0.63898076  0.10451089    -0.27000
C1978       C  0.57277190  0.64247409  0.12603120    -0.15000
C1979       C  0.57459907  0.60521669  0.13570068     0.35600
C1980       C  0.55486380  0.56570997  0.12434442    -0.26400
C1981       C  0.53327709  0.56224984  0.10341720    -0.15700
C1982       C  0.53182456  0.59917229  0.09317587     0.36700
N1983       N  0.51009594  0.59598087  0.07136118    -0.89900
H1984       H  0.55051263  0.66728163  0.09655379     0.17800
H1985       H  0.55507728  0.53703287  0.13275894     0.17800
N1986       N  0.59547446  0.60672222  0.15763714    -0.88900
H1987       H  0.51283791  0.62630981  0.06561212     0.35100
H1988       H  0.48265527  0.57583850  0.07750391     0.40200
H1989       H  0.61469001  0.59762522  0.15190942     0.39900
H1990       H  0.57782852  0.58386568  0.17229781     0.34800
C1991       C  0.53863228  0.87008980  0.11009308    -0.27000
C1992       C  0.57447566  0.89896927  0.11661975    -0.15000
C1993       C  0.58701484  0.94444127  0.11262754     0.35600
C1994       C  0.56336311  0.95918993  0.10393239    -0.26400
C1995       C  0.52709317  0.93028563  0.09901275    -0.15700
C1996       C  0.51504658  0.88523814  0.10131942     0.36700
N1997       N  0.98261507  0.85951253  0.09339337    -0.89900
H1998       H  0.52836261  0.83533600  0.11233587     0.17800
H1999       H  0.57326980  0.99387402  0.10206490     0.17800
N2000       N  0.62350247  0.97693518  0.11717381    -0.88900
H2001       H  0.96856390  0.83755586  0.10946477     0.35100
H2002       H  0.98577467  0.84217292  0.07869007     0.40200
H2003       H  0.64197129  0.97115732  0.10648628     0.39900
H2004       H  0.62767796  0.97586591  0.13705744     0.34800
C2005       C  0.82723007  0.76222302  0.23100767    -0.27000
C2006       C  0.81138148  0.71696688  0.23661763    -0.15000
C2007       C  0.77307706  0.69107312  0.23482253     0.35600
C2008       C  0.75273201  0.71055109  0.22560013    -0.26400
C2009       C  0.76924526  0.75524578  0.21814816    -0.15700
C2010       C  0.80700809  0.78144817  0.22173180     0.36700
N2011       N  0.82614946  0.82746172  0.21542727    -0.89900
H2012       H  0.85603855  0.78328212  0.23346405     0.17800
H2013       H  0.72364842  0.69028224  0.22369631     0.17800
N2014       N  0.75462907  0.64511910  0.24178977    -0.88900
H2015       H  0.81538825  0.84169546  0.22753335     0.35100
H2016       H  0.82267548  0.83386901  0.19593092     0.40200
H2017       H  0.76302696  0.63065076  0.22812710     0.39900
H2018       H  0.72637814  0.63162380  0.24057632     0.34800
C2019       C  0.77845062  0.54272504  0.19660787    -0.27000
C2020       C  0.76672966  0.50441422  0.21261340    -0.15000
C2021       C  0.77425798  0.50675953  0.23923108     0.35600
C2022       C  0.79415368  0.54777171  0.24917231    -0.26400
C2023       C  0.80663163  0.58603002  0.23293327    -0.15700
C2024       C  0.79894799  0.58349308  0.20631516     0.36700
N2025       N  0.81396678  0.62228002  0.18890691    -0.89900
H2026       H  0.77269629  0.54075242  0.17615396     0.17800
H2027       H  0.80143712  0.54983096  0.26924794     0.17800
N2028       N  0.76835793  0.96745142  0.25451423    -0.88900
H2029       H  0.80658297  0.61464432  0.16985273     0.35100
H2030       H  0.80261447  0.64127221  0.19451855     0.40200
H2031       H  0.73993603  0.94947057  0.25756534     0.39900
H2032       H  0.77893009  0.97472385  0.27289155     0.34800
C2033       C  0.93978293  0.70336252  0.20338975    -0.27000
C2034       C  0.93160659  0.71746302  0.22643061    -0.15000
C2035       C  0.96007961  0.75406670  0.23711888     0.35600
C2036       C  0.49763754  0.76891976  0.22500023    -0.26400
C2037       C  0.50515632  0.74822227  0.20517538    -0.15700
C2038       C  0.97586073  0.71939685  0.19370344     0.36700
N2039       N  0.98330265  0.70175286  0.17130287    -0.89900
H2040       H  0.91822447  0.67948733  0.19270828     0.17800
H2041       H  0.51996478  0.79641637  0.23314465     0.17800
N2042       N  0.95232797  0.77473323  0.25774711    -0.88900
H2043       H  0.95903632  0.67865105  0.16387080     0.35100
H2044       H  0.49653544  0.67822554  0.17931475     0.40200
H2045       H  0.93669290  0.78804924  0.25028752     0.39900
H2046       H  0.97637527  0.80060947  0.26364082     0.34800
C2047       C  0.81910480  0.62948841  0.35001528    -0.27000
C2048       C  0.84056750  0.66640662  0.36347977    -0.15000
C2049       C  0.86703043  0.70464844  0.34932194     0.35600
C2050       C  0.87132756  0.70541943  0.32215446    -0.26400
C2051       C  0.84962134  0.66859059  0.30868724    -0.15700
C2052       C  0.82343905  0.63029345  0.32285978     0.36700
N2053       N  0.80204206  0.59170006  0.30994262    -0.89900
H2054       H  0.79906147  0.59954447  0.36066607     0.17800
H2055       H  0.89150596  0.73525553  0.31146527     0.17800
N2056       N  0.88883688  0.74316607  0.36225867    -0.88900
H2057       H  0.77445444  0.58192708  0.31388673     0.35100
H2058       H  0.80697701  0.56732603  0.31795578     0.40200
H2059       H  0.88435690  0.76790512  0.35426646     0.39900
H2060       H  0.91632143  0.75238795  0.35833687     0.34800
C2061       C  0.69548588  0.61322251  0.44262613    -0.27000
C2062       C  0.67909502  0.57201240  0.45634657    -0.15000
C2063       C  0.70172203  0.55435075  0.46369827     0.35600
C2064       C  0.73946562  0.57777159  0.45656976    -0.26400
C2065       C  0.75621736  0.61973340  0.44322060    -0.15700
C2066       C  0.73322755  0.63693682  0.43614205     0.36700
N2067       N  0.74807870  0.67859231  0.42196524    -0.89900
H2068       H  0.67878337  0.62778463  0.43732733     0.17800
H2069       H  0.75505409  0.56192719  0.46163223     0.17800
N2070       N  0.68791939  0.51353979  0.47893023    -0.88900
H2071       H  0.74196967  0.69853508  0.43288961     0.35100
H2072       H  0.73502760  0.67451102  0.40446199     0.40200
H2073       H  0.66070198  0.00463290  0.48413645     0.39900
H2074       H  0.70122088  0.51968995  0.49638725     0.34800
C2075       C  0.91346195  0.83409959  0.43536629    -0.27000
C2076       C  0.94387601  0.83671389  0.44809862    -0.15000
C2077       C  0.94619303  0.79815323  0.45227071     0.35600
C2078       C  0.91734276  0.75848542  0.44505037    -0.26400
C2079       C  0.88569054  0.75570454  0.43434654    -0.15700
C2080       C  0.88459484  0.79445362  0.42868630     0.36700
N2081       N  0.85463884  0.79463546  0.41602827    -0.89900
H2082       H  0.91108694  0.86314683  0.43190935     0.17800
H2083       H  0.91917722  0.72921411  0.44878397     0.17800
N2084       N  0.97587004  0.79713492  0.46507356    -0.88900
H2085       H  0.83074699  0.77590196  0.42778936     0.35100
H2086       H  0.85186414  0.78034998  0.39837770     0.40200
H2087       H  0.49827783  0.83196328  0.46507952     0.39900
H2088       H  0.49209522  0.79266236  0.44582247     0.34800
C2089       C  0.89354191  0.64187496  0.46630544    -0.27000
C2090       C  0.88385254  0.63530253  0.44038961    -0.15000
C2091       C  0.90260690  0.62221021  0.42338466     0.35600
C2092       C  0.92975505  0.61432651  0.43278188    -0.26400
C2093       C  0.93894060  0.61914895  0.45905354    -0.15700
C2094       C  0.92144636  0.63475355  0.47577554     0.36700
N2095       N  0.93170347  0.64303067  0.50217565    -0.89900
H2096       H  0.87955997  0.65318888  0.47904784     0.17800
H2097       H  0.94272410  0.60269387  0.41939040     0.17800
N2098       N  0.89348303  0.61457565  0.39681183    -0.88900
H2099       H  0.91569383  0.65373724  0.51179164     0.35100
H2100       H  0.95859499  0.66866484  0.50139419     0.40200
H2101       H  0.89861418  0.64368303  0.38682499     0.39900
H2102       H  0.86562319  0.59225977  0.39650353     0.34800
C2103       C  0.80091128  0.95410549  0.55441091    -0.27000
C2104       C  0.78183655  0.90844122  0.56087555    -0.15000
C2105       C  0.80308190  0.88738954  0.56311103     0.35600
C2106       C  0.84070927  0.91046194  0.55592054    -0.26400
C2107       C  0.85902328  0.95498421  0.54739903    -0.15700
C2108       C  0.83896216  0.97737206  0.54746080     0.36700
N2109       N  0.85822834  0.52255116  0.53409736    -0.89900
H2110       H  0.78649207  0.97235217  0.55510254     0.17800
H2111       H  0.85605060  0.89314189  0.55690149     0.17800
N2112       N  0.78659199  0.84250156  0.57275363    -0.88900
H2113       H  0.83976640  0.53440596  0.53425995     0.35100
H2114       H  0.86737203  0.52539577  0.51464245     0.40200
H2115       H  0.77833141  0.84028670  0.59234413     0.39900
H2116       H  0.80568542  0.83158710  0.57236607     0.34800
C2117       C  0.62392163  0.69667419  0.56027174    -0.27000
C2118       C  0.59330368  0.69422099  0.54793431    -0.15000
C2119       C  0.59025042  0.73222706  0.54499334     0.35600
C2120       C  0.61838733  0.77167209  0.55360806    -0.26400
C2121       C  0.65023312  0.77432614  0.56412343    -0.15700
C2122       C  0.65231793  0.73598305  0.56806316     0.36700
N2123       N  0.68345783  0.73709844  0.57982019    -0.89900
H2124       H  0.62650370  0.66767965  0.56283467     0.17800
H2125       H  0.61618815  0.80090248  0.55104611     0.17800
N2126       N  0.55964456  0.73120523  0.53245818    -0.88900
H2127       H  0.68112957  0.70621792  0.58108189     0.35100
H2128       H  0.68338422  0.74560992  0.59894157     0.40200
H2129       H  0.56120555  0.72440187  0.51311117     0.39900
H2130       H  0.56147967  0.76182844  0.53185100     0.34800
C2131       C  0.60753369  0.91419562  0.56514190    -0.27000
C2132       C  0.60282824  0.91503930  0.53805886    -0.15000
C2133       C  0.62366315  0.90313427  0.52160764     0.35600
C2134       C  0.65022032  0.89474133  0.53223562    -0.26400
C2135       C  0.65592114  0.89667002  0.55897734    -0.15700
C2136       C  0.63369851  0.90510536  0.57558823     0.36700
N2137       N  0.63843267  0.90580013  0.60306554    -0.89900
H2138       H  0.59156972  0.92187897  0.57850599     0.17800
H2139       H  0.66627433  0.88610826  0.51956080     0.17800
N2140       N  0.61848415  0.89865032  0.49431182    -0.88900
H2141       H  0.61360390  0.88292696  0.61264394     0.35100
H2142       H  0.64454374  0.93652739  0.60859032     0.40200
H2143       H  0.62482149  0.92862898  0.48495274     0.39900
H2144       H  0.59115270  0.87613799  0.49188503     0.34800
C2145       C  0.98798560  0.51152800  0.98355963    -0.27000
C2146       C  0.51527694  0.49939321  0.97467989    -0.15000
C2147       C  0.53275604  0.98501580  0.98966949     0.35600
C2148       C  0.52256745  0.97831360  0.01647036    -0.26400
C2149       C  0.49583608  0.98740719  0.02641067    -0.15700
C2150       C  0.97891749  0.50736760  0.01046675     0.36700
N2151       N  0.95401014  0.52111511  0.01995489    -0.89900
H2152       H  0.97605215  0.52507665  0.97007821     0.17800
H2153       H  0.53520161  0.96525878  0.02964583     0.17800
N2154       N  0.56013898  0.97519870  0.98005811    -0.88900
H2155       H  0.94452050  0.53261021  0.00449406     0.35100
H2156       H  0.96862004  0.54737039  0.03115806     0.40200
H2157       H  0.54765313  0.94977788  0.96793488     0.39900
H2158       H  0.57009464  0.96396687  0.99534379     0.34800
C2159       C  0.69810345  0.87313648  0.68226026    -0.27000
C2160       C  0.67376937  0.83022182  0.69169618    -0.15000
C2161       C  0.65894581  0.79762491  0.67399634     0.35600
C2162       C  0.66754637  0.80862572  0.64717849    -0.26400
C2163       C  0.69124613  0.85163093  0.63765284    -0.15700
C2164       C  0.70685584  0.88411948  0.65538493     0.36700
N2165       N  0.73065470  0.92846803  0.64610527    -0.89900
H2166       H  0.70937766  0.89845379  0.69569534     0.17800
H2167       H  0.65615802  0.78327890  0.63376827     0.17800
N2168       N  0.63560846  0.75314775  0.68326504    -0.88900
H2169       H  0.75560943  0.93901000  0.65473510     0.35100
H2170       H  0.71918442  0.94704344  0.65241174     0.40200
H2171       H  0.64757918  0.73502597  0.67709081     0.39900
H2172       H  0.61066471  0.74206876  0.67454306     0.34800
C2173       C  0.96943539  0.85102580  0.89114627    -0.27000
C2174       C  0.94118931  0.84515023  0.87491278    -0.15000
C2175       C  0.93274130  0.87939603  0.87109527     0.35600
C2176       C  0.95306886  0.91832419  0.88280364    -0.26400
C2177       C  0.98154173  0.92424480  0.89846400    -0.15700
C2178       C  0.98948924  0.89005715  0.90305719     0.36700
N2179       N  0.50955229  0.88989383  0.92670912    -0.89900
H2180       H  0.97601541  0.82517523  0.89460047     0.17800
H2181       H  0.94784153  0.94489720  0.87826407     0.17800
N2182       N  0.90420344  0.87563625  0.85485101    -0.88900
H2183       H  0.50919996  0.86032207  0.93051360     0.35100
H2184       H  0.49965099  0.89606480  0.94385882     0.40200
H2185       H  0.91561663  0.90062670  0.83993614     0.39900
H2186       H  0.88536914  0.88003772  0.86610436     0.34800
C2187       C  0.66059327  0.54647932  0.89311899    -0.27000
C2188       C  0.67578894  0.58059936  0.87361484    -0.15000
C2189       C  0.65510279  0.59960341  0.86445499     0.35600
C2190       C  0.61966833  0.58461170  0.87548792    -0.26400
C2191       C  0.60402616  0.55031552  0.89531505    -0.15700
C2192       C  0.62487766  0.53059153  0.90356480     0.36700
N2193       N  0.61290514  0.00030223  0.92289146    -0.89900
H2194       H  0.67638191  0.53153164  0.90000861     0.17800
H2195       H  0.60463500  0.59965327  0.86774228     0.17800
N2196       N  0.67026959  0.63429640  0.84409117    -0.88900
H2197       H  0.61432784  0.97417249  0.91551551     0.35100
H2198       H  0.62965645  0.01025929  0.93864868     0.40200
H2199       H  0.69252007  0.66086928  0.85131722     0.39900
H2200       H  0.65142952  0.64448891  0.83928569     0.34800
C2201       C  0.97323273  0.61666485  0.88818875    -0.27000
C2202       C  0.93881199  0.58838107  0.87915557    -0.15000
C2203       C  0.92625330  0.54289744  0.88203043     0.35600
C2204       C  0.94898656  0.52759908  0.89242929    -0.26400
C2205       C  0.98407343  0.55612982  0.89993320    -0.15700
C2206       C  0.99566780  0.60106976  0.89862470     0.36700
N2207       N  0.03000578  0.63111523  0.90826397    -0.89900
H2208       H  0.98321944  0.65137517  0.88691698     0.17800
H2209       H  0.43818653  0.49015484  0.89575422     0.17800
N2210       N  0.89065306  0.51211158  0.87427380    -0.88900
H2211       H  0.02496594  0.64726078  0.92285687     0.35100
H2212       H  0.04560577  0.65418858  0.89301676     0.40200
H2213       H  0.87140251  0.51299315  0.88711091     0.39900
H2214       H  0.88657688  0.48043888  0.87646925     0.34800
C2215       C  0.73372110  0.80087125  0.77528171    -0.27000
C2216       C  0.69974676  0.77284490  0.76593584    -0.15000
C2217       C  0.68946651  0.72866625  0.76453482     0.35600
C2218       C  0.71208639  0.71276655  0.77411117    -0.26400
C2219       C  0.74539775  0.74028995  0.78486034    -0.15700
C2220       C  0.75654383  0.78527335  0.78477683     0.36700
N2221       N  0.79082827  0.81551839  0.79443249    -0.89900
H2222       H  0.74236737  0.83506729  0.77588400     0.17800
H2223       H  0.70321496  0.67851983  0.77324762     0.17800
N2224       N  0.65641462  0.69995758  0.75285858    -0.88900
H2225       H  0.78566122  0.83067162  0.80957214     0.35100
H2226       H  0.80602370  0.83932135  0.77941284     0.40200
H2227       H  0.64021029  0.67425304  0.76662229     0.39900
H2228       H  0.66324359  0.68717527  0.73719094     0.34800
C2229       C  0.53366284  0.74727235  0.80548942    -0.27000
C2230       C  0.00745650  0.74520062  0.78894097    -0.15000
C2231       C  0.01729949  0.75846949  0.76222404     0.35600
C2232       C  0.55092756  0.76897636  0.75215857    -0.26400
C2233       C  0.57851857  0.77240541  0.76840142    -0.15700
C2234       C  0.56959068  0.76228251  0.79557956     0.36700
N2235       N  0.59715870  0.76828938  0.81335929    -0.89900
H2236       H  0.52734784  0.73894335  0.82624975     0.17800
H2237       H  0.55644206  0.77919925  0.73170506     0.17800
N2238       N  0.99143703  0.75892006  0.74467979    -0.88900
H2239       H  0.58917920  0.73849761  0.82378124     0.35100
H2240       H  0.59831917  0.79026508  0.82658213     0.40200
H2241       H  0.98928771  0.73914452  0.72970362     0.39900
H2242       H  0.00159107  0.79068381  0.73645316     0.34800
C2243       C  0.71807867  0.97908033  0.76998732    -0.27000
C2244       C  0.73902496  0.98192056  0.79147259    -0.15000
C2245       C  0.74038698  0.94437494  0.80108364     0.35600
C2246       C  0.72109421  0.90539287  0.78919444    -0.26400
C2247       C  0.70043293  0.90287956  0.76785394    -0.15700
C2248       C  0.69877342  0.93982831  0.75819098     0.36700
N2249       N  0.67725851  0.93736410  0.73650045    -0.89900
H2250       H  0.71595744  0.50911584  0.76348174     0.17800
H2251       H  0.72104712  0.87647980  0.79741002     0.17800
N2252       N  0.76043331  0.94514707  0.82339127    -0.88900
H2253       H  0.69450209  0.96016697  0.72166737     0.35100
H2254       H  0.65791225  0.94616555  0.74236493     0.40200
H2255       H  0.77975523  0.93605823  0.81793392     0.39900
H2256       H  0.74225946  0.92193884  0.83769699     0.34800
loop_ 
_geom_bond_atom_site_label_1 
_geom_bond_atom_site_label_2 
_geom_bond_distance 
_geom_bond_site_symmetry_2 
_ccdc_geom_bond_type 
Zr1           O2   2.440       .  S
Zr1           O3   2.424       .  S
Zr1           O4   2.456       .  S
Zr1           O7   2.446       .  S
Zr1           O9   2.386       .  S
Zr1          O10   2.384       .  S
Zr1          O11   2.402       .  S
Zr1          O12   2.401       .  S
O2           H58   0.990       .  S
O2           H66   0.990       .  S
O3           C23   1.282       .  A
O4           C25   1.288       .  A
O5          Zr15   2.422       .  S
O5           C24   1.282       .  A
O6          Zr14   2.402       .  S
O6           C25   1.279       .  A
O7           C24   1.288       .  A
O8          Zr16   2.414       .  S
O8           C23   1.281       .  A
O9          Zr14   2.392       .  S
O9          Zr16   2.376       .  S
O10         Zr15   2.383       .  S
O10         Zr16   2.378       .  S
O10          H45   0.966       .  S
O11         Zr14   2.395       .  S
O11         Zr31   2.380       .  S
O11          H48   0.965       .  S
O12         Zr15   2.384       .  S
O12         Zr31   2.389       .  S
Zr13         O38   2.439       .  S
Zr13         O32   2.448       .  S
Zr13         O40   2.466       .  S
Zr13         O28   2.470       .  S
Zr13         O19   2.400       .  S
Zr13         O20   2.410       .  S
Zr13         O21   2.378       .  S
Zr13         O22   2.393       .  S
Zr14         O33   2.438       .  S
Zr14         O26   2.435       .  S
Zr14         O27   2.412       .  S
Zr14         O20   2.398       .  S
Zr14         O21   2.383       .  S
Zr15         O17   2.435       .  S
Zr15         O39   2.439       .  S
Zr15         O41   2.403       .  S
Zr15         O19   2.388       .  S
Zr15         O22   2.391       .  S
Zr16         O42   2.435       .  S
Zr16         O43   2.436       .  S
Zr16         O18   2.435       .  S
Zr16         O19   2.386       .  S
Zr16         O20   2.392       .  S
O17          H54   0.990       .  S
O18          H49   0.990       .  S
O18          H63   0.990       .  S
O20          H46   0.966       .  S
O21         Zr31   2.376       .  S
O22         Zr31   2.383       .  S
O22          H47   0.965       .  S
C23         C496   1.465       .  S
C24         C527   1.498       .  S
C25        C1116   1.481   1_545  S
O26          H62   0.990       .  S
O27          C29   1.280       .  A
O28          C29   1.292       .  A
C29         C510   1.500       .  S
O30         Zr31   2.438       .  S
O30          H59   0.990       .  S
Zr31         O34   2.438       .  S
Zr31         O35   2.438       .  S
Zr31         O36   2.393       .  S
O32          C37   1.288       .  A
O33          H50   0.990       .  S
O33          H65   0.990       .  S
O34          H51   0.990       .  S
O35          H55   0.990       .  S
O35          H64   0.990       .  S
O36          C37   1.276       .  A
C37         C538   1.489       .  S
O38          H57   0.990       .  S
O38          H61   0.990       .  S
O39          H53   0.990       .  S
O39          H60   0.990       .  S
O40          C44   1.291       .  A
O41          C44   1.279       .  A
O42          H52   0.990       .  S
O43          H56   0.990       .  S
C44         C482   1.492       .  S
C67          C68   1.540       .  S
C67          C73   1.545       .  S
C67          C71   1.528       .  S
C67         C541   1.532       .  S
C68          H75   1.085       .  S
C68          C69   1.371       .  D
C69          C70   1.547       .  S
C69         C524   1.492       .  S
C70          C74   1.539       .  S
C70          C72   1.539       .  S
C70          H76   1.110       .  S
C71          H77   1.087       .  S
C71          C72   1.355       .  D
C72         C555   1.474       .  S
C73          H78   1.082       .  S
C73          C74   1.364       .  D
C74         C468   1.483       .  S
C79          C85   1.538       .  S
C79          C83   1.545       .  S
C79         C644   1.524   1_545  S
C79         C499   1.531       .  S
C80         C643   1.526       .  S
C80          H87   1.087       .  S
C80        C1209   1.354       .  D
C81          C82   1.542       .  S
C81        C1208   1.357       .  D
C81         C485   1.478       .  S
C82        C1778   1.546       .  S
C82         C648   1.546       .  S
C82          H88   1.110       .  S
C83          H89   1.078       .  S
C83        C1212   1.368       .  D
C84         C646   1.546   1_545  S
C84        C1211   1.366       .  D
C84         C513   1.496       .  S
C85          H90   1.086       .  S
C85          C86   1.368       .  D
C86        C1774   1.547   1_445  S
C86         C454   1.493       .  S
Zr91         O92   2.438       .  S
Zr91         O93   2.448       .  S
Zr91       O1222   2.539       .  S
Zr91        O661   2.506       .  S
Zr91       O1227   2.395       .  S
Zr91        O664   2.395       .  S
Zr91       O1229   2.409       .  S
Zr91        O666   2.417   1_545  S
O92         H148   0.990       .  S
O92         H156   0.990       .  S
O93         C113   1.287       .  A
O94       Zr1219   2.538   1_455  S
O94         C115   1.303       .  A
O95        Zr105   2.381       .  S
O95         C114   1.276       .  A
O96        Zr104   2.378       .  S
O96         C115   1.274       .  A
O97        Zr655   2.505       .  S
O97         C114   1.299       .  A
O98        Zr106   2.395       .  S
O98         C113   1.279       .  A
O99        Zr104   2.385       .  S
O99       Zr1219   2.394   1_455  S
O99       Zr1234   2.385       .  S
O100       Zr105   2.376       .  S
O100       Zr655   2.393       .  S
O100       Zr670   2.376       .  S
O100        H135   0.964       .  S
O101       Zr104   2.395       .  S
O101      Zr1219   2.411   1_455  S
O101       Zr685   2.391   1_545  S
O101        H138   0.965       .  S
O102       Zr105   2.386       .  S
O102       Zr655   2.415       .  S
O102      Zr1249   2.388       .  S
Zr103       O128   2.437       .  S
Zr103       O122   2.441       .  S
Zr103       O130   2.518       .  S
Zr103       O682   2.517       .  S
Zr103       O112   2.400       .  S
Zr103      O1237   2.404   1_455  S
Zr103       O674   2.412       .  S
Zr103       O675   2.383       .  S
Zr104       O123   2.439       .  S
Zr104       O116   2.435       .  S
Zr104       O117   2.375       .  S
Zr104       O110   2.393       .  S
Zr104       O111   2.382       .  S
Zr105       O107   2.436       .  S
Zr105       O129   2.441       .  S
Zr105       O131   2.375       .  S
Zr105       O109   2.387       .  S
Zr105      O1240   2.380       .  S
Zr106       O696   2.436       .  S
Zr106      O1261   2.436       .  S
Zr106      O1236   2.436       .  S
Zr106      O1227   2.383       .  S
Zr106       O664   2.382       .  S
Zr106       O673   2.383   1_545  S
Zr106      O1238   2.388       .  S
O107        H144   0.990       .  S
O108      Zr1234   2.436       .  S
O108        H139   0.990       .  S
O108        H153   0.990       .  S
O109      Zr1231   2.401       .  S
O109       Zr670   2.394       .  S
O110       Zr667   2.414   1_545  S
O110      Zr1234   2.391       .  S
O110        H136   0.966       .  S
O111       Zr667   2.382   1_545  S
O111       Zr685   2.373   1_545  S
O112       Zr121   2.380       .  S
O112      Zr1233   2.383   1_455  S
O112       H1265   0.966   1_455  S
C113        C401   1.487       .  S
C114        C415   1.497       .  S
C115        C426   1.503       .  S
O116        H152   0.990       .  S
O117        C119   1.274       .  A
O118       Zr667   2.512   1_545  S
O118        C119   1.300       .  A
C119        C370   1.491       .  S
O120       Zr121   2.439       .  S
O120        H149   0.990       .  S
Zr121       O688   2.437       .  S
Zr121      O1253   2.438   1_455  S
Zr121       O126   2.405       .  S
Zr121       O665   2.390       .  S
Zr121      O1230   2.387   1_455  S
Zr121       O675   2.375       .  S
O122        C127   1.285       .  A
O123        H140   0.990       .  S
O123        H155   0.990       .  S
O124       Zr685   2.439   1_545  S
O124        H705   0.990       .  S
O125      Zr1249   2.440       .  S
O125        H154   0.990       .  S
O125       H1273   0.990       .  S
O126        C127   1.281       .  A
C127        C440   1.492       .  S
O128        H147   0.990       .  S
O128        H151   0.990       .  S
O129        H143   0.990       .  S
O129        H150   0.990       .  S
O130       C1262   1.301   1_455  A
O131        C134   1.274       .  A
O132       Zr670   2.436       .  S
O132        H706   0.990       .  S
O133      Zr1234   2.436       .  S
O133        H146   0.990   1_545  S
C134       O1258   1.301       .  A
C134        C384   1.499       .  S
H137       O1240   0.966       .  S
H141        O688   0.990       .  S
H142        O696   0.990   1_565  S
H145       O1253   0.990       .  S
C157        C158   1.534       .  S
C157        C163   1.560       .  S
C157        C161   1.543       .  S
C157        C373   1.551       .  S
C158        H165   1.087       .  S
C158        C159   1.362       .  D
C159        C160   1.537       .  S
C159        C356   1.484       .  S
C160        C164   1.530       .  S
C160        C162   1.526       .  S
C160        H166   1.110       .  S
C161        H167   1.081       .  S
C161        C162   1.360       .  D
C162        C398   1.467       .  S
C163        H168   1.085       .  S
C163        C164   1.383       .  D
C164        C387   1.500       .  S
C169        C170   1.564       .  S
C169        C175   1.532       .  S
C169        C173   1.544       .  S
C169        C412   1.552       .  S
C170        H177   1.085       .  S
C170        C171   1.382       .  D
C171        C172   1.529       .  S
C171        C429   1.504       .  S
C172        C176   1.539       .  S
C172        C174   1.530       .  S
C172        H178   1.111       .  S
C173        H179   1.084       .  S
C173        C174   1.366       .  D
C174        C443   1.474       .  S
C175        H180   1.085       .  S
C175        C176   1.359       .  D
C176        C471   1.484       .  S
Zr181       O182   2.439       .  S
Zr181       O183   2.420       .  S
Zr181       O184   2.466       .  S
Zr181       O187   2.465       .  S
Zr181       O189   2.391       .  S
Zr181       O190   2.382       .  S
Zr181       O191   2.402       .  S
Zr181       O192   2.400       .  S
O182        H238   0.990       .  S
O182        H246   0.990       .  S
O183        C203   1.282       .  A
O184        C205   1.292       .  A
O185       Zr195   2.407       .  S
O185        C204   1.278       .  A
O186       Zr194   2.408       .  S
O186        C205   1.280       .  A
O187        C204   1.292       .  A
O188       Zr196   2.408       .  S
O188        C203   1.280       .  A
O189       Zr194   2.394       .  S
O189       Zr196   2.378       .  S
O190       Zr195   2.377       .  S
O190       Zr196   2.374       .  S
O190        H225   0.966       .  S
O191       Zr194   2.404       .  S
O191       Zr211   2.381       .  S
O191        H228   0.965       .  S
O192       Zr195   2.386       .  S
O192       Zr211   2.385       .  S
Zr193       O218   2.440       .  S
Zr193       O212   2.426       .  S
Zr193       O220   2.437       .  S
Zr193       O208   2.445       .  S
Zr193       O199   2.393       .  S
Zr193       O200   2.400       .  S
Zr193       O201   2.376       .  S
Zr193       O202   2.388       .  S
Zr194       O213   2.438       .  S
Zr194       O206   2.434       .  S
Zr194       O207   2.431       .  S
Zr194       O200   2.392       .  S
Zr194       O201   2.380       .  S
Zr195       O197   2.435       .  S
Zr195       O219   2.439       .  S
Zr195       O221   2.397       .  S
Zr195       O199   2.390       .  S
Zr195       O202   2.386       .  S
Zr196       O222   2.435       .  S
Zr196       O223   2.435       .  S
Zr196       O198   2.436       .  S
Zr196       O199   2.385       .  S
Zr196       O200   2.389       .  S
O197        H234   0.990       .  S
O198        H229   0.990       .  S
O198        H243   0.990       .  S
O200        H226   0.965       .  S
O201       Zr211   2.378       .  S
O202       Zr211   2.382       .  S
O202        H227   0.966       .  S
C203        C345   1.467       .  S
C204        C300   1.501       .  S
C205        C286   1.492       .  S
O206        H242   0.990       .  S
O207        C209   1.285       .  A
O208        C209   1.285       .  A
C209        C317   1.495       .  S
O210       Zr211   2.439       .  S
O210        H239   0.990       .  S
Zr211       O214   2.437       .  S
Zr211       O215   2.440       .  S
Zr211       O216   2.393       .  S
O212        C217   1.283       .  A
O213        H230   0.990       .  S
O213        H245   0.990       .  S
O214        H231   0.990       .  S
O215        H235   0.990       .  S
O215        H244   0.990       .  S
O216        C217   1.278       .  A
C217        C272   1.473       .  S
O218        H237   0.990       .  S
O218        H241   0.990       .  S
O219        H233   0.990       .  S
O219        H240   0.990       .  S
O220        C224   1.285       .  A
O221        C224   1.278       .  A
O222        H232   0.990       .  S
O223        H236   0.990       .  S
C224        C892   1.463       .  S
C247        C248   1.532       .  S
C247        C253   1.543       .  S
C247        C815   1.538       .  S
C247        C275   1.527       .  S
C248        H255   1.086       .  S
C248       C1377   1.366       .  D
C249        C814   1.547       .  S
C249       C1376   1.366   1_455  D
C249        C303   1.492       .  S
C250        C252   1.541   1_565  S
C250        C813   1.547       .  S
C250        C818   1.546   1_455  S
C250        H256   1.110   1_565  S
C251        C811   1.537   1_545  S
C251        H257   1.086       .  S
C251       C1380   1.355       .  D
C252       C1379   1.356   1_455  D
C252        C289   1.477       .  S
C253        H258   1.084       .  S
C253       C1382   1.369       .  D
C254        C814   1.544   1_655  S
C254       C1381   1.367       .  D
C254        C457   1.487       .  S
C259        C260   1.532       .  S
C259        C265   1.537       .  S
C259        C263   1.536       .  S
C259        C342   1.530       .  S
C260        H267   1.083       .  S
C260        C261   1.353       .  D
C261        C262   1.537       .  S
C261        C331   1.466       .  S
C262        C266   1.544       .  S
C262        C264   1.545       .  S
C262        H268   1.106       .  S
C263        H269   1.086       .  S
C263        C264   1.373       .  D
C264        C314   1.501       .  S
C265        H270   1.086       .  S
C265        C266   1.365       .  D
C266        C359   1.484       .  S
C271        C272   1.406       .  A
C271        C276   1.400       .  A
C271        H278   1.084       .  S
C272        C273   1.407       .  A
C273        C274   1.398       .  A
C273        N280   1.439       .  S
C274        C275   1.412       .  A
C274        H279   1.080       .  S
C275        C276   1.414       .  A
C276        N277   1.438       .  S
N277        H281   1.046       .  S
N277        H282   1.045       .  S
N280        H283   1.046       .  S
N280        H284   1.046       .  S
C285        C286   1.407       .  A
C285        C290   1.408       .  A
C285        H292   1.083       .  S
C286        C287   1.419       .  A
C287        C288   1.402       .  A
C287        N294   1.433       .  S
C288        C289   1.397       .  A
C288        H293   1.084       .  S
C289        C290   1.410       .  A
C290        N291   1.438       .  S
N291        H295   1.046       .  S
N291        H296   1.045   1_455  S
N294        H297   1.046       .  S
N294        H298   1.046       .  S
C299        C300   1.407       .  A
C299        C304   1.406       .  A
C299        H306   1.083       .  S
C300        C301   1.429       .  A
C301        C302   1.400       .  A
C301        N308   1.432       .  S
C302        C303   1.398       .  A
C302        H307   1.083       .  S
C303        C304   1.412       .  A
C304       N1433   1.432   1_455  S
N305       C1432   1.432       .  S
N305        H309   1.046       .  S
N305        H310   1.046       .  S
N308        H311   1.045       .  S
N308        H312   1.044       .  S
C313        C314   1.407       .  A
C313        C318   1.400       .  A
C313        H320   1.083       .  S
C314        C315   1.415       .  A
C315        C316   1.406       .  A
C315        N322   1.432       .  S
C316        C317   1.407       .  A
C316        H321   1.084       .  S
C317        C318   1.419       .  A
C318        N319   1.432       .  S
N319        H323   1.044       .  S
N319        H324   1.045       .  S
N322        H325   1.046       .  S
N322        H326   1.046       .  S
C327        C328   1.401       .  A
C327        C332   1.395       .  A
C327        H334   1.084       .  S
C328        C788   1.467   1_545  S
C328        C329   1.410       .  A
C329        C330   1.406       .  A
C329        N900   1.437   1_545  S
C330        C331   1.401       .  A
C330        H335   1.081       .  S
C331        C332   1.409       .  A
C332        N333   1.439       .  S
N333        H337   1.046       .  S
N333        H338   1.042       .  S
N336        C893   1.438       .  S
N336        H339   1.046       .  S
N336        H340   1.046       .  S
C341        C342   1.413       .  A
C341        C346   1.400       .  A
C341        H348   1.078       .  S
C342        C343   1.415       .  A
C343       C1472   1.402       .  A
C343        N350   1.438       .  S
C344        C345   1.402   1_655  A
C344       C1471   1.401       .  A
C344        H349   1.084   1_655  S
C345       C1474   1.404   1_455  A
C346       C1473   1.405       .  A
C346        N347   1.439       .  S
N347        H351   1.046       .  S
N347       H1480   1.046       .  S
N350        H353   1.045       .  S
N350        H354   1.046       .  S
H352       N1475   1.046       .  S
C355        C356   1.405       .  A
C355        C360   1.401       .  A
C355        H362   1.084       .  S
C356        C357   1.408       .  A
C357        C358   1.403       .  A
C357        N364   1.432       .  S
C358        C359   1.405       .  A
C358        H363   1.084       .  S
C359        C360   1.407       .  A
C360        N361   1.431       .  S
N361        H365   1.045       .  S
N361        H366   1.046       .  S
N364        H367   1.045       .  S
N364        H368   1.046       .  S
C369        C370   1.408       .  A
C369        C374   1.406       .  A
C369        H376   1.084       .  S
C370        C371   1.415       .  A
C371        C372   1.411       .  A
C371        N378   1.439       .  S
C372        C373   1.420       .  A
C372        H377   1.075       .  S
C373        C374   1.413       .  A
C374        N375   1.433       .  S
N375        H379   1.046       .  S
N375        H380   1.045       .  S
N378        H382   1.046       .  S
N378        H945   1.041       .  S
H381        N942   1.041       .  S
C383        C384   1.414       .  A
C383        C388   1.403       .  A
C383        H390   1.084       .  S
C384        C385   1.419       .  A
C385        C386   1.415       .  A
C385        N392   1.437       .  S
C386        C387   1.412       .  A
C386        H391   1.082       .  S
C387        C388   1.407       .  A
C388        N389   1.432       .  S
N389        H393   1.044       .  S
N389        H394   1.045       .  S
N392       H1523   1.042       .  S
N392       H1524   1.046       .  S
H395       N1520   1.041       .  S
H396       N1520   1.046       .  S
C397        C398   1.401       .  A
C397        C402   1.403       .  A
C397        H404   1.084       .  S
C398        C399   1.403       .  A
C399        C400   1.393       .  A
C399        N406   1.434       .  S
C400        C401   1.414       .  A
C400        H405   1.083       .  S
C401        C402   1.416       .  A
C402        N403   1.437       .  S
N403        H407   1.046       .  S
N403        H408   1.046       .  S
N406        H409   1.044       .  S
N406        H410   1.046       .  S
C411        C412   1.423       .  A
C411        C416   1.418       .  A
C411        H418   1.078       .  S
C412        C413   1.418       .  A
C413        C414   1.408       .  A
C413        N420   1.439       .  S
C414        C415   1.409       .  A
C414        H419   1.084       .  S
C415        C416   1.407       .  A
C416        N981   1.438       .  S
N417        C980   1.438   1_545  S
N417        H421   1.045       .  S
N417        H422   1.046       .  S
N420        H423   1.044       .  S
N420        H424   1.046       .  S
C425        C426   1.415       .  A
C425        C430   1.410       .  A
C425        H432   1.083       .  S
C426        C427   1.410       .  A
C427        C428   1.421       .  A
C427        N434   1.436       .  S
C428        C429   1.415       .  A
C428        H433   1.083       .  S
C429        C430   1.405       .  A
C430        N431   1.438       .  S
N431        H435   1.045       .  S
N431        H436   1.046       .  S
N434        H437   1.045       .  S
N434        H438   1.046       .  S
C439        C440   1.413       .  A
C439        C444   1.398       .  A
C439        H446   1.083       .  S
C440        C441   1.422       .  A
C441        C442   1.399       .  A
C441        N448   1.433       .  S
C442        C443   1.402       .  A
C442        H447   1.084       .  S
C443        C444   1.399       .  A
C444        N445   1.433       .  S
N445        H449   1.046       .  S
N445        H450   1.045       .  S
N448        H451   1.043       .  S
N448        H452   1.045       .  S
C453        C458   1.407   1_556  A
C453       C1582   1.401       .  A
C453        H460   1.084       .  S
C454       C1581   1.403   1_455  A
C454       C1019   1.416   1_545  A
C455        C456   1.405   1_556  A
C455       C1018   1.414       .  A
C455        N462   1.438       .  S
C456        C457   1.401   1_455  A
C456        H461   1.084       .  S
C457       C2150   1.415       .  A
C458       C2149   1.415   1_545  A
C458        N459   1.437       .  S
N459        H463   1.046       .  S
N459        H464   1.045       .  S
N462        H465   1.044       .  S
N462        H466   1.046       .  S
C467        C468   1.401       .  A
C467        C472   1.409       .  A
C467        H474   1.083       .  S
C468        C469   1.409       .  A
C469        C470   1.401       .  A
C469        N476   1.432       .  S
C470        C471   1.401       .  A
C470        H475   1.084       .  S
C471        C472   1.416       .  A
C472        N473   1.438       .  S
N473        H477   1.044       .  S
N473        H478   1.046       .  S
N476        H479   1.046       .  S
N476        H480   1.046       .  S
C481        C482   1.407       .  A
C481        C486   1.411       .  A
C481        H488   1.083       .  S
C482        C483   1.419       .  A
C483        C484   1.401       .  A
C483        N490   1.433       .  S
C484        C485   1.396       .  A
C484        H489   1.084       .  S
C485        C486   1.410       .  A
C486       N1615   1.437       .  S
N487       C1614   1.436   1_455  S
N487        H491   1.046       .  S
N487        H492   1.045       .  S
N490        H493   1.046       .  S
N490        H494   1.046       .  S
C495        C496   1.397       .  A
C495        C500   1.400       .  A
C495        H502   1.084       .  S
C496        C497   1.406       .  A
C497        C498   1.402       .  A
C497        N504   1.439       .  S
C498        C499   1.411       .  A
C498        H503   1.074       .  S
C499        C500   1.420       .  A
C500       N1065   1.434   1_545  S
N501       C1064   1.434       .  S
N501        H505   1.046       .  S
N501        H506   1.046       .  S
N504        H507   1.046       .  S
N504        H508   1.046       .  S
C509        C510   1.405       .  A
C509        C514   1.404       .  A
C509        H516   1.083       .  S
C510        C511   1.424       .  A
C511        C512   1.410       .  A
C511        N518   1.438       .  S
C512        C513   1.400       .  A
C512       H1645   1.081   1_545  S
C513        C514   1.414       .  A
C514        N515   1.432       .  S
N515        H519   1.045       .  S
N515        H520   1.046       .  S
H517       C1640   1.078   1_565  S
N518        H521   1.045       .  S
N518        H522   1.046   1_545  S
C523        C524   1.400       .  A
C523        C528   1.403       .  A
C523        H530   1.083       .  S
C524        C525   1.412       .  A
C525        C526   1.407       .  A
C525        N532   1.432       .  S
C526        C527   1.408       .  A
C526        H531   1.083       .  S
C527        C528   1.419       .  A
C528        N529   1.433       .  S
N529        H533   1.046       .  S
N529        H534   1.046       .  S
N532        H535   1.046       .  S
N532        H536   1.046       .  S
C537        C542   1.406       .  A
C537       C1666   1.401       .  A
C537        H544   1.084       .  S
C538        C539   1.418       .  A
C538       C1665   1.403       .  A
C539       C1668   1.397       .  A
C539        N546   1.434       .  S
C540        C541   1.409       .  A
C540       C1667   1.396       .  A
C540        H545   1.077       .  S
C541        C542   1.424       .  A
C542        N543   1.439       .  S
N543        H547   1.046       .  S
N543        H548   1.044       .  S
N546        H549   1.046       .  S
N546        H550   1.046       .  S
C551        C552   1.406       .  A
C551        C556   1.405       .  A
C551       H1122   1.084       .  S
C552        C589   1.485       .  S
C552        C553   1.415       .  A
C553        C554   1.403       .  A
C553        N560   1.433       .  S
C554        C555   1.398       .  A
C554        H559   1.084       .  S
C555        C556   1.406       .  A
C556        N557   1.432       .  S
N557        H561   1.045       .  S
N557        H562   1.046       .  S
H558       C1115   1.084   1_545  S
N560        H563   1.045       .  S
N560        H564   1.046       .  S
Zr565       O566   2.440       .  S
Zr565       O567   2.426       .  S
Zr565       O568   2.456       .  S
Zr565       O571   2.455       .  S
Zr565       O573   2.390       .  S
Zr565       O574   2.381       .  S
Zr565       O575   2.408       .  S
Zr565       O576   2.399       .  S
O566        H622   0.990       .  S
O566        H630   0.990       .  S
O567        C587   1.282       .  A
O568        C589   1.289       .  A
O569       Zr579   2.402       .  S
O569        C588   1.278       .  A
O570       Zr578   2.415       .  S
O570        C589   1.281       .  A
O571        C588   1.290       .  A
O572       Zr580   2.407       .  S
O572        C587   1.279       .  A
O573       Zr578   2.390       .  S
O573       Zr580   2.378       .  S
O574       Zr579   2.380       .  S
O574       Zr580   2.377       .  S
O574        H609   0.965       .  S
O575       Zr578   2.400       .  S
O575       Zr595   2.378       .  S
O575        H612   0.965       .  S
O576       Zr579   2.388       .  S
O576       Zr595   2.390       .  S
Zr577       O602   2.440       .  S
Zr577       O596   2.443       .  S
Zr577       O604   2.466       .  S
Zr577       O592   2.465       .  S
Zr577       O583   2.400       .  S
Zr577       O584   2.411       .  S
Zr577       O585   2.383       .  S
Zr577       O586   2.390       .  S
Zr578       O597   2.438       .  S
Zr578       O590   2.434       .  S
Zr578       O591   2.415       .  S
Zr578       O584   2.395       .  S
Zr578       O585   2.386       .  S
Zr579       O581   2.434       .  S
Zr579       O603   2.439       .  S
Zr579       O605   2.392       .  S
Zr579       O583   2.387       .  S
Zr579       O586   2.387       .  S
Zr580       O606   2.436       .  S
Zr580       O607   2.434       .  S
Zr580       O582   2.437       .  S
Zr580       O583   2.390       .  S
Zr580       O584   2.392       .  S
O581        H618   0.990       .  S
O582        H613   0.990       .  S
O582        H627   0.990       .  S
O584        H610   0.966       .  S
O585       Zr595   2.375       .  S
O586       Zr595   2.382       .  S
O586        H611   0.965       .  S
C587       C1060   1.462       .  S
C588       C1091   1.494       .  S
O590        H626   0.990       .  S
O591        C593   1.281       .  A
O592        C593   1.291       .  A
C593       C1074   1.501       .  S
O594       Zr595   2.438       .  S
O594        H623   0.990       .  S
Zr595       O598   2.439       .  S
Zr595       O599   2.438       .  S
Zr595       O600   2.390       .  S
O596        C601   1.286       .  A
O597        H614   0.990       .  S
O597        H629   0.990       .  S
O598        H615   0.990       .  S
O599        H619   0.990       .  S
O599        H628   0.990       .  S
O600        C601   1.276       .  A
C601       C1102   1.482       .  S
O602        H621   0.990       .  S
O602        H625   0.990       .  S
O603        H617   0.990       .  S
O603        H624   0.990       .  S
O604        C608   1.292       .  A
O605        C608   1.277       .  A
O606        H616   0.990       .  S
O607        H620   0.990       .  S
C608       C1046   1.493       .  S
C631        C632   1.537       .  S
C631        C637   1.548       .  S
C631        C635   1.526       .  S
C631       C1105   1.531       .  S
C632        H639   1.084       .  S
C632        C633   1.369       .  D
C633        C634   1.547       .  S
C633       C1088   1.491       .  S
C634        C638   1.539       .  S
C634        C636   1.537       .  S
C634        H640   1.110       .  S
C635        H641   1.087       .  S
C635        C636   1.354       .  D
C636       C1119   1.470       .  S
C637        H642   1.082       .  S
C637        C638   1.367       .  D
C638       C1032   1.483       .  S
C643        C649   1.537       .  S
C643        C647   1.544       .  S
C643       C1063   1.527       .  S
C644        H651   1.087       .  S
C644       C1773   1.356       .  D
C645        C646   1.541       .  S
C645       C1772   1.358       .  D
C645       C1049   1.477       .  S
C646       C1214   1.546   1_565  S
C646        H652   1.110       .  S
C647        H653   1.080       .  S
C647       C1776   1.367       .  D
C648       C1775   1.367       .  D
C648       C1077   1.495       .  S
C649        H654   1.086       .  S
C649        C650   1.367       .  D
C650       C1210   1.547   1_455  S
C650       C1018   1.488       .  S
Zr655       O656   2.437       .  S
Zr655       O657   2.439       .  S
Zr655      O1786   2.533       .  S
Zr655      O1791   2.394       .  S
Zr655      O1793   2.408       .  S
O656        H712   0.990       .  S
O656        H720   0.990       .  S
O657        C677   1.286       .  A
O658      Zr1783   2.532   1_455  S
O658        C679   1.302       .  A
O659       Zr669   2.388       .  S
O659        C678   1.276       .  A
O660       Zr668   2.372       .  S
O660        C679   1.273       .  A
O661        C678   1.299   1_545  A
O662       Zr670   2.411       .  S
O662        C677   1.282       .  A
O663      Zr1783   2.396   1_455  S
O663       Zr668   2.387       .  S
O663      Zr1798   2.379       .  S
O664       Zr669   2.375   1_545  S
O664        H699   0.965       .  S
O665      Zr1783   2.413   1_455  S
O665       Zr668   2.396       .  S
O665        H702   0.965       .  S
O666       Zr669   2.380       .  S
O666      Zr1813   2.389       .  S
Zr667       O692   2.438       .  S
Zr667       O686   2.445       .  S
Zr667       O694   2.511       .  S
Zr667      O1801   2.406   1_455  S
Zr667       O676   2.397       .  S
Zr668       O687   2.437       .  S
Zr668       O680   2.436       .  S
Zr668       O681   2.378       .  S
Zr668       O674   2.391       .  S
Zr668       O675   2.373       .  S
Zr669       O671   2.435       .  S
Zr669       O693   2.441       .  S
Zr669       O695   2.369       .  S
Zr669       O673   2.388       .  S
Zr669      O1804   2.382       .  S
Zr670      O1825   2.436       .  S
Zr670      O1800   2.438       .  S
Zr670      O1791   2.379       .  S
Zr670      O1802   2.392       .  S
O671        H708   0.990       .  S
O672      Zr1798   2.436       .  S
O672        H703   0.990       .  S
O672        H717   0.989       .  S
O673      Zr1795   2.402       .  S
O674      Zr1798   2.387       .  S
O674        H700   0.966       .  S
O676      Zr1797   2.383   1_455  S
O676       Zr685   2.379       .  S
O676       H1829   0.965   1_455  S
C677        C965   1.488       .  S
C678        C979   1.501       .  S
C679        C990   1.498       .  S
O680        H716   0.990       .  S
O681        C683   1.274       .  A
O682        C683   1.301       .  A
C683        C934   1.493       .  S
O684       Zr685   2.438       .  S
O684        H713   0.990       .  S
Zr685      O1817   2.439   1_455  S
Zr685       O690   2.409       .  S
Zr685      O1794   2.393   1_455  S
O686        C691   1.285       .  A
O687        H704   0.990       .  S
O687        H719   0.990       .  S
O689      Zr1813   2.441       .  S
O689       H1837   0.990       .  S
O689        H718   0.989       .  S
O690        C691   1.281       .  A
C691       C1004   1.496       .  S
O692        H711   0.990       .  S
O692        H715   0.990       .  S
O693        H707   0.990       .  S
O693        H714   0.990       .  S
O694       C1826   1.300   1_455  A
O695        C698   1.273       .  A
O697      Zr1798   2.435       .  S
O697        H710   0.990       .  S
C698       O1822   1.300       .  A
C698        C948   1.493       .  S
H701       O1804   0.965       .  S
H709       O1817   0.990       .  S
C721        C722   1.532       .  S
C721        C727   1.558       .  S
C721        C725   1.544       .  S
C721        C937   1.549       .  S
C722        H729   1.087       .  S
C722        C723   1.360       .  D
C723        C724   1.536       .  S
C723        C920   1.482       .  S
C724        C728   1.532       .  S
C724        C726   1.528       .  S
C724        H730   1.110       .  S
C725        H731   1.082       .  S
C725        C726   1.362       .  D
C726        C962   1.470       .  S
C727        H732   1.084       .  S
C727        C728   1.382       .  D
C728        C951   1.499       .  S
C733        C734   1.562       .  S
C733        C739   1.532       .  S
C733        C737   1.547       .  S
C733        C976   1.554       .  S
C734        H741   1.085       .  S
C734        C735   1.382       .  D
C735        C736   1.529       .  S
C735        C993   1.502       .  S
C736        C740   1.537       .  S
C736        C738   1.528       .  S
C736        H742   1.111       .  S
C737        H743   1.084       .  S
C737        C738   1.366       .  D
C738       C1007   1.473       .  S
C739        H744   1.087       .  S
C739        C740   1.360       .  D
C740       C1035   1.483       .  S
Zr745       O746   2.441       .  S
Zr745       O747   2.429       .  S
Zr745       O748   2.463       .  S
Zr745       O751   2.455       .  S
Zr745       O753   2.388       .  S
Zr745       O754   2.384       .  S
Zr745       O755   2.407       .  S
Zr745       O756   2.400       .  S
O746        H802   0.991       .  S
O746        H810   0.990       .  S
O747        C767   1.284       .  A
O748        C769   1.290       .  A
O749       Zr759   2.410       .  S
O749        C768   1.279       .  A
O750       Zr758   2.405       .  S
O750        C769   1.279       .  A
O751        C768   1.290       .  A
O752       Zr760   2.415       .  S
O752        C767   1.282       .  A
O753       Zr758   2.394       .  S
O753       Zr760   2.376       .  S
O754       Zr759   2.377       .  S
O754       Zr760   2.380       .  S
O754        H789   0.966       .  S
O755       Zr758   2.406       .  S
O755       Zr775   2.385       .  S
O755        H792   0.965       .  S
O756       Zr759   2.383       .  S
O756       Zr775   2.386       .  S
Zr757       O782   2.438       .  S
Zr757       O776   2.434       .  S
Zr757       O784   2.440       .  S
Zr757       O772   2.445       .  S
Zr757       O763   2.396       .  S
Zr757       O764   2.403       .  S
Zr757       O765   2.375       .  S
Zr757       O766   2.386       .  S
Zr758       O777   2.437       .  S
Zr758       O770   2.434       .  S
Zr758       O771   2.431       .  S
Zr758       O764   2.391       .  S
Zr758       O765   2.381       .  S
Zr759       O761   2.435       .  S
Zr759       O783   2.438       .  S
Zr759       O785   2.389       .  S
Zr759       O763   2.388       .  S
Zr759       O766   2.385       .  S
Zr760       O786   2.436       .  S
Zr760       O787   2.436       .  S
Zr760       O762   2.438       .  S
Zr760       O763   2.390       .  S
Zr760       O764   2.392       .  S
O761        H798   0.990       .  S
O762        H793   0.990       .  S
O762        H807   0.990       .  S
O764        H790   0.965       .  S
O765       Zr775   2.380       .  S
O766       Zr775   2.381       .  S
O766        H791   0.965       .  S
C767        C909   1.477       .  S
C768        C864   1.498       .  S
C769        C850   1.486       .  S
O770        H806   0.990       .  S
O771        C773   1.285       .  A
O772        C773   1.285       .  A
C773        C881   1.496       .  S
O774       Zr775   2.440       .  S
O774        H803   0.990       .  S
Zr775       O778   2.437       .  S
Zr775       O779   2.442       .  S
Zr775       O780   2.400       .  S
O776        C781   1.284       .  A
O777        H794   0.990       .  S
O777        H809   0.990       .  S
O778        H795   0.990       .  S
O779        H799   0.990       .  S
O779        H808   0.989       .  S
O780        C781   1.279       .  A
C781        C836   1.479       .  S
O782        H801   0.990       .  S
O782        H805   0.990       .  S
O783        H797   0.990       .  S
O783        H804   0.990       .  S
O784        C788   1.285       .  A
O785        C788   1.277       .  A
O786        H796   0.990       .  S
O787        H800   0.991       .  S
C811        C812   1.531       .  S
C811        C817   1.544       .  S
C811        C839   1.530       .  S
C812        H819   1.085       .  S
C812       C1941   1.367       .  D
C813       C1940   1.366   1_455  D
C813        C867   1.492       .  S
C814        C816   1.539       .  S
C814        H820   1.110       .  S
C815        H821   1.085       .  S
C815       C1944   1.353       .  D
C816       C1943   1.355   1_455  D
C816        C853   1.474       .  S
C817        H822   1.083       .  S
C817       C1946   1.370       .  D
C818       C1945   1.369       .  D
C818       C1021   1.493       .  S
C823        C824   1.532       .  S
C823        C829   1.535       .  S
C823        C827   1.535       .  S
C823        C906   1.528       .  S
C824        H831   1.084       .  S
C824        C825   1.354       .  D
C825        C826   1.539       .  S
C825        C895   1.470       .  S
C826        C830   1.544       .  S
C826        C828   1.546       .  S
C826        H832   1.106       .  S
C827        H833   1.086       .  S
C827        C828   1.374       .  D
C828        C878   1.503       .  S
C829        H834   1.086       .  S
C829        C830   1.364       .  D
C830        C923   1.483       .  S
C835        C836   1.406       .  A
C835        C840   1.402       .  A
C835        H842   1.084       .  S
C836        C837   1.409       .  A
C837        C838   1.402       .  A
C837        N844   1.439       .  S
C838        C839   1.413       .  A
C838        H843   1.081       .  S
C839        C840   1.414       .  A
C840        N841   1.438       .  S
N841        H845   1.046       .  S
N841        H846   1.046       .  S
N844        H847   1.046       .  S
N844        H848   1.046       .  S
C849        C850   1.406       .  A
C849        C854   1.409       .  A
C849        H856   1.084       .  S
C850        C851   1.416       .  A
C851        C852   1.400       .  A
C851        N858   1.433       .  S
C852        C853   1.397       .  A
C852        H857   1.084       .  S
C853        C854   1.410       .  A
C854        N855   1.437       .  S
N855        H859   1.046       .  S
N855        H860   1.045   1_455  S
N858        H861   1.046       .  S
N858        H862   1.046       .  S
C863        C864   1.407       .  A
C863        C868   1.405       .  A
C863        H870   1.083       .  S
C864        C865   1.427       .  A
C865        C866   1.400       .  A
C865        N872   1.433       .  S
C866        C867   1.399       .  A
C866        H871   1.083       .  S
C867        C868   1.412       .  A
C868       N1997   1.432   1_455  S
N869       C1996   1.432       .  S
N869        H873   1.046       .  S
N869        H874   1.045       .  S
N872        H875   1.045       .  S
N872        H876   1.044       .  S
C877        C878   1.407       .  A
C877        C882   1.399       .  A
C877        H884   1.083       .  S
C878        C879   1.419       .  A
C879        C880   1.410       .  A
C879        N886   1.437       .  S
C880        C881   1.407       .  A
C880        H885   1.084       .  S
C881        C882   1.418       .  A
C882        N883   1.432       .  S
N883        H887   1.044       .  S
N883        H888   1.045       .  S
N886        H889   1.041       .  S
N886        H890   1.045       .  S
C891        C892   1.398       .  A
C891        C896   1.396       .  A
C891        H898   1.084       .  S
C892        C893   1.409       .  A
C893        C894   1.405       .  A
C894        C895   1.401       .  A
C894        H899   1.079       .  S
C895        C896   1.413       .  A
C896        N897   1.441       .  S
N897        H901   1.046       .  S
N897        H902   1.043       .  S
N900        H903   1.046       .  S
N900        H904   1.046       .  S
C905        C906   1.412       .  A
C905        C910   1.399       .  A
C905        H912   1.079       .  S
C906        C907   1.415       .  A
C907       C2036   1.402       .  A
C907        N914   1.438       .  S
C908       C2035   1.403       .  A
C908        C909   1.404   1_655  A
C908        H913   1.084   1_655  S
C909       C2038   1.410   1_455  A
C910       C2037   1.406       .  A
C910        N911   1.439       .  S
N911        H915   1.046       .  S
N911       H2044   1.046       .  S
N914        H917   1.045       .  S
N914        H918   1.046       .  S
H916       N2039   1.046       .  S
C919        C920   1.405       .  A
C919        C924   1.401       .  A
C919        H926   1.084       .  S
C920        C921   1.407       .  A
C921        C922   1.402       .  A
C921        N928   1.432       .  S
C922        C923   1.405       .  A
C922        H927   1.084       .  S
C923        C924   1.407       .  A
C924        N925   1.429       .  S
N925        H929   1.046       .  S
N925        H930   1.046       .  S
N928        H931   1.045       .  S
N928        H932   1.045       .  S
C933        C934   1.408       .  A
C933        C938   1.406       .  A
C933        H940   1.084       .  S
C934        C935   1.416       .  A
C935        C936   1.412       .  A
C935        N942   1.438       .  S
C936        C937   1.418       .  A
C936        H941   1.076       .  S
C937        C938   1.413       .  A
C938        N939   1.433       .  S
N939        H943   1.045       .  S
N939        H944   1.046       .  S
N942        H946   1.046       .  S
C947        C948   1.414       .  A
C947        C952   1.402       .  A
C947        H954   1.085       .  S
C948        C949   1.416       .  A
C949        C950   1.411       .  A
C949        N956   1.437       .  S
C950        C951   1.411       .  A
C950        H955   1.082       .  S
C951        C952   1.409       .  A
C952        N953   1.433       .  S
N953        H957   1.044       .  S
N953        H958   1.045       .  S
N956       H2087   1.041       .  S
N956       H2088   1.045       .  S
H959       N2084   1.042       .  S
H960       N2084   1.046       .  S
C961        C962   1.401       .  A
C961        C966   1.405       .  A
C961        H968   1.084       .  S
C962        C963   1.403       .  A
C963        C964   1.393       .  A
C963        N970   1.433       .  S
C964        C965   1.412       .  A
C964        H969   1.083       .  S
C965        C966   1.417       .  A
C966        N967   1.438       .  S
N967        H971   1.046       .  S
N967        H972   1.046       .  S
N970        H973   1.044       .  S
N970        H974   1.046       .  S
C975        C976   1.421       .  A
C975        C980   1.418       .  A
C975        H982   1.079       .  S
C976        C977   1.418       .  A
C977        C978   1.410       .  A
C977        N984   1.438       .  S
C978        C979   1.410       .  A
C978        H983   1.084       .  S
C979        C980   1.408       .  A
N981        H985   1.045       .  S
N981        H986   1.046       .  S
N984        H987   1.045       .  S
N984        H988   1.046       .  S
C989        C990   1.414       .  A
C989        C994   1.408       .  A
C989        H996   1.083       .  S
C990        C991   1.409       .  A
C991        C992   1.420       .  A
C991        N998   1.437       .  S
C992        C993   1.415       .  A
C992        H997   1.083       .  S
C993        C994   1.405       .  A
C994        N995   1.438       .  S
N995        H999   1.045       .  S
N995       H1000   1.046       .  S
N998       H1001   1.045       .  S
N998       H1002   1.046       .  S
C1003      C1004   1.414       .  A
C1003      C1008   1.399       .  A
C1003      H1010   1.083       .  S
C1004      C1005   1.423       .  A
C1005      C1006   1.401       .  A
C1005      N1012   1.432       .  S
C1006      C1007   1.401       .  A
C1006      H1011   1.084       .  S
C1007      C1008   1.399       .  A
C1008      N1009   1.433       .  S
N1009      H1013   1.045       .  S
N1009      H1014   1.045       .  S
N1012      H1015   1.043       .  S
N1012      H1016   1.045       .  S
C1017      C2146   1.402       .  A
C1017      C1022   1.407   1_556  A
C1017      H1024   1.084       .  S
C1018      C2145   1.402   1_455  A
C1019      C1020   1.407   1_556  A
C1019      N1026   1.438       .  S
C1020      C1021   1.401   1_455  A
C1020      H1025   1.084       .  S
C1021      C1586   1.416   1_565  A
C1022      C1585   1.414       .  A
C1022      N1023   1.437       .  S
N1023      H1027   1.046       .  S
N1023      H1028   1.045       .  S
N1026      H1029   1.044       .  S
N1026      H1030   1.046       .  S
C1031      C1032   1.401       .  A
C1031      C1036   1.405       .  A
C1031      H1038   1.083       .  S
C1032      C1033   1.408       .  A
C1033      C1034   1.402       .  A
C1033      N1040   1.432       .  S
C1034      C1035   1.402       .  A
C1034      H1039   1.084       .  S
C1035      C1036   1.420       .  A
C1036      N1037   1.440       .  S
N1037      H1041   1.046       .  S
N1037      H1042   1.042       .  S
N1040      H1043   1.046       .  S
N1040      H1044   1.045       .  S
C1045      C1046   1.406       .  A
C1045      C1050   1.409       .  A
C1045      H1052   1.083       .  S
C1046      C1047   1.422       .  A
C1047      C1048   1.400       .  A
C1047      N1054   1.434       .  S
C1048      C1049   1.395       .  A
C1048      H1053   1.083       .  S
C1049      C1050   1.409       .  A
C1050      N2179   1.436       .  S
N1051      C2178   1.436   1_455  S
N1051      H1055   1.046       .  S
N1051      H1056   1.044       .  S
N1054      H1057   1.046       .  S
N1054      H1058   1.046       .  S
C1059      C1060   1.396       .  A
C1059      C1064   1.397       .  A
C1059      H1066   1.084       .  S
C1060      C1061   1.405       .  A
C1061      C1062   1.403       .  A
C1061      N1068   1.439       .  S
C1062      C1063   1.413       .  A
C1062      H1067   1.075       .  S
C1063      C1064   1.418       .  A
N1065      H1069   1.046       .  S
N1065      H1070   1.045   1_565  S
N1068      H1071   1.046       .  S
N1068      H1072   1.046       .  S
C1073      C1074   1.406       .  A
C1073      C1078   1.405       .  A
C1073      H1080   1.083       .  S
C1074      C1075   1.424       .  A
C1075      C1076   1.409       .  A
C1075      N1082   1.438       .  S
C1076      C1077   1.400       .  A
C1076      H2209   1.082       .  S
C1077      C1078   1.413       .  A
C1078      N1079   1.432       .  S
N1079      H1083   1.046       .  S
N1079      H1084   1.046       .  S
H1081      C2204   1.081       .  S
N1082      H1085   1.045       .  S
N1082      H1086   1.046       .  S
C1087      C1088   1.400       .  A
C1087      C1092   1.403       .  A
C1087      H1094   1.083       .  S
C1088      C1089   1.414       .  A
C1089      C1090   1.404       .  A
C1089      N1096   1.432       .  S
C1090      C1091   1.405       .  A
C1090      H1095   1.083       .  S
C1091      C1092   1.421       .  A
C1092      N1093   1.433       .  S
N1093      H1097   1.046       .  S
N1093      H1098   1.046       .  S
N1096      H1099   1.046       .  S
N1096      H1100   1.045       .  S
C1101      C2230   1.402       .  A
C1101      C1106   1.408       .  A
C1101      H1108   1.084       .  S
C1102      C2229   1.402       .  A
C1102      C1103   1.414       .  A
C1103      C2232   1.394       .  A
C1103      N1110   1.434       .  S
C1104      C2231   1.395       .  A
C1104      C1105   1.406       .  A
C1104      H1109   1.077       .  S
C1105      C1106   1.425       .  A
C1106      N1107   1.439       .  S
N1107      H1111   1.046       .  S
N1107      H1112   1.044       .  S
N1110      H1113   1.046       .  S
N1110      H1114   1.046       .  S
C1115      C1116   1.405       .  A
C1115      C1120   1.403       .  A
C1116      C1117   1.418       .  A
C1117      C1118   1.403       .  A
C1117      N1124   1.438       .  S
C1118      C1119   1.397       .  A
C1118      H1123   1.084       .  S
C1119      C1120   1.405       .  A
C1120      N1121   1.432       .  S
N1121      H1125   1.046       .  S
N1121      H1126   1.045       .  S
N1124      H1127   1.046       .  S
N1124      H1128   1.046       .  S
Zr1129     O1130   2.439       .  S
Zr1129     O1131   2.419       .  S
Zr1129     O1132   2.460       .  S
Zr1129     O1135   2.454       .  S
Zr1129     O1137   2.392       .  S
Zr1129     O1138   2.386       .  S
Zr1129     O1139   2.401       .  S
Zr1129     O1140   2.398       .  S
O1130      H1186   0.990       .  S
O1130      H1194   0.990       .  S
O1131      C1151   1.282       .  A
O1132      C1153   1.290       .  A
O1133     Zr1143   2.414       .  S
O1133      C1152   1.280       .  A
O1134     Zr1142   2.404       .  S
O1134      C1153   1.279       .  A
O1135      C1152   1.290       .  A
O1136     Zr1144   2.419       .  S
O1136      C1151   1.281       .  A
O1137     Zr1142   2.393       .  S
O1137     Zr1144   2.376       .  S
O1138     Zr1143   2.383       .  S
O1138     Zr1144   2.373       .  S
O1138      H1173   0.965       .  S
O1139     Zr1142   2.399       .  S
O1139     Zr1159   2.380       .  S
O1139      H1176   0.966       .  S
O1140     Zr1143   2.386       .  S
O1140     Zr1159   2.387       .  S
Zr1141     O1166   2.440       .  S
Zr1141     O1160   2.441       .  S
Zr1141     O1168   2.458       .  S
Zr1141     O1156   2.463       .  S
Zr1141     O1147   2.404       .  S
Zr1141     O1148   2.409       .  S
Zr1141     O1149   2.378       .  S
Zr1141     O1150   2.391       .  S
Zr1142     O1161   2.435       .  S
Zr1142     O1154   2.435       .  S
Zr1142     O1155   2.419       .  S
Zr1142     O1148   2.393       .  S
Zr1142     O1149   2.382       .  S
Zr1143     O1145   2.437       .  S
Zr1143     O1167   2.438       .  S
Zr1143     O1169   2.407       .  S
Zr1143     O1147   2.390       .  S
Zr1143     O1150   2.389       .  S
Zr1144     O1170   2.437       .  S
Zr1144     O1171   2.435       .  S
Zr1144     O1146   2.438       .  S
Zr1144     O1147   2.393       .  S
Zr1144     O1148   2.396       .  S
O1145      H1182   0.990       .  S
O1146      H1177   0.990       .  S
O1146      H1191   0.990       .  S
O1148      H1174   0.966       .  S
O1149     Zr1159   2.378       .  S
O1150     Zr1159   2.386       .  S
O1150      H1175   0.965       .  S
C1151      C1624   1.465       .  S
C1152      C1655   1.498       .  S
C1153      C2244   1.485   1_545  S
O1154      H1190   0.990       .  S
O1155      C1157   1.282       .  A
O1156      C1157   1.290       .  A
C1157      C1638   1.502       .  S
O1158     Zr1159   2.440       .  S
O1158      H1187   0.990       .  S
Zr1159     O1162   2.438       .  S
Zr1159     O1163   2.438       .  S
Zr1159     O1164   2.396       .  S
O1160      C1165   1.286       .  A
O1161      H1178   0.990       .  S
O1161      H1193   0.990       .  S
O1162      H1179   0.990       .  S
O1163      H1183   0.990       .  S
O1163      H1192   0.990       .  S
O1164      C1165   1.277       .  A
C1165      C1666   1.481   1_655  S
O1166      H1185   0.990       .  S
O1166      H1189   0.990       .  S
O1167      H1181   0.990       .  S
O1167      H1188   0.990       .  S
O1168      C1172   1.290       .  A
O1169      C1172   1.279       .  A
O1170      H1180   0.990       .  S
O1171      H1184   0.990       .  S
C1172      C1610   1.493       .  S
C1195      C1196   1.534       .  S
C1195      C1201   1.543       .  S
C1195      C1199   1.530       .  S
C1195      C1669   1.529       .  S
C1196      H1203   1.086       .  S
C1196      C1197   1.367       .  D
C1197      C1198   1.546       .  S
C1197      C1652   1.493       .  S
C1198      C1202   1.540       .  S
C1198      C1200   1.541       .  S
C1198      H1204   1.111       .  S
C1199      H1205   1.087       .  S
C1199      C1200   1.358       .  D
C1200      C1683   1.470       .  S
C1201      H1206   1.081       .  S
C1201      C1202   1.366       .  D
C1202      C1596   1.482       .  S
C1207      C1772   1.530   1_545  S
C1207      C1213   1.538       .  S
C1207      C1211   1.543       .  S
C1207      C1627   1.531       .  S
C1208      C1771   1.530       .  S
C1208      H1215   1.087       .  S
C1209      C1210   1.545   1_455  S
C1209      C1613   1.479   1_455  S
C1210      C1776   1.548   1_655  S
C1210      H1216   1.110       .  S
C1211      H1217   1.078       .  S
C1212      C1774   1.550   1_445  S
C1212      C1641   1.500   1_455  S
C1213      H1218   1.086       .  S
C1213      C1214   1.367       .  D
C1214      C1582   1.489       .  S
Zr1219     O1220   2.438       .  S
Zr1219     O1221   2.449       .  S
Zr1219     O1789   2.503       .  S
Zr1219     O1792   2.398       .  S
Zr1219     O1794   2.422   1_545  S
O1220      H1276   0.990       .  S
O1220      H1284   0.990       .  S
O1221      C1241   1.287       .  A
O1222      C1243   1.304       .  A
O1223     Zr1233   2.383       .  S
O1223      C1242   1.276       .  A
O1224     Zr1232   2.381       .  S
O1224      C1243   1.275       .  A
O1225     Zr1783   2.511       .  S
O1225      C1242   1.300       .  A
O1226     Zr1234   2.398   1_655  S
O1226      C1241   1.279       .  A
O1227     Zr1232   2.387       .  S
O1228     Zr1783   2.396       .  S
O1228     Zr1233   2.379       .  S
O1228     Zr1798   2.378   1_655  S
O1228      H1263   0.965       .  S
O1229     Zr1232   2.393       .  S
O1229     Zr1813   2.389   1_545  S
O1229      H1266   0.965       .  S
O1230     Zr1783   2.415       .  S
O1230     Zr1233   2.384       .  S
Zr1231     O1256   2.438       .  S
Zr1231     O1250   2.433       .  S
Zr1231     O1258   2.519       .  S
Zr1231     O1810   2.508       .  S
Zr1231     O1802   2.417       .  S
Zr1231     O1803   2.387       .  S
Zr1231     O1240   2.393       .  S
Zr1232     O1251   2.437       .  S
Zr1232     O1244   2.435       .  S
Zr1232     O1245   2.383       .  S
Zr1232     O1238   2.393       .  S
Zr1232     O1239   2.381       .  S
Zr1233     O1235   2.437       .  S
Zr1233     O1257   2.441       .  S
Zr1233     O1259   2.372       .  S
Zr1233     O1237   2.391       .  S
Zr1234     O1824   2.436   1_455  S
Zr1234     O1792   2.377   1_455  S
Zr1234     O1801   2.386   1_445  S
O1235      H1272   0.990       .  S
O1236      H1267   0.990       .  S
O1236      H1281   0.990       .  S
O1237     Zr1798   2.389   1_655  S
O1238     Zr1795   2.413   1_545  S
O1238      H1264   0.966       .  S
O1239     Zr1795   2.386   1_545  S
O1239     Zr1813   2.375   1_545  S
O1240     Zr1249   2.383       .  S
C1241      C1529   1.491       .  S
C1242      C1543   1.501       .  S
C1243      C1554   1.503       .  S
O1244      H1280   0.990       .  S
O1245      C1247   1.275       .  A
O1246     Zr1795   2.508   1_545  S
O1246      C1247   1.299       .  A
C1247      C1498   1.492       .  S
O1248     Zr1249   2.439       .  S
O1248      H1277   0.991       .  S
Zr1249     O1816   2.439       .  S
Zr1249     O1254   2.401       .  S
Zr1249     O1793   2.388       .  S
Zr1249     O1803   2.375       .  S
O1250      C1255   1.283       .  A
O1251      H1268   0.990       .  S
O1251      H1283   0.990       .  S
O1252     Zr1813   2.437   1_545  S
O1252      H1833   0.990       .  S
O1253      H1282   0.990       .  S
O1254      C1255   1.280       .  A
C1255      C1568   1.486       .  S
O1256      H1275   0.990       .  S
O1256      H1279   0.990       .  S
O1257      H1271   0.990       .  S
O1257      H1278   0.990       .  S
O1259      C1262   1.273       .  A
O1260     Zr1798   2.436   1_655  S
O1260      H1834   0.990       .  S
O1261      H1274   0.990       .  S
C1262      C1512   1.500       .  S
H1269      O1816   0.990       .  S
H1270      O1824   0.990   1_565  S
C1285      C1286   1.532       .  S
C1285      C1291   1.559       .  S
C1285      C1289   1.544       .  S
C1285      C1501   1.550       .  S
C1286      H1293   1.087       .  S
C1286      C1287   1.360       .  D
C1287      C1288   1.539       .  S
C1287      C1484   1.485       .  S
C1288      C1292   1.532       .  S
C1288      C1290   1.530       .  S
C1288      H1294   1.109       .  S
C1289      H1295   1.081       .  S
C1289      C1290   1.363       .  D
C1290      C1526   1.473       .  S
C1291      H1296   1.085       .  S
C1291      C1292   1.382       .  D
C1292      C1515   1.502       .  S
C1297      C1298   1.567       .  S
C1297      C1303   1.533       .  S
C1297      C1301   1.543       .  S
C1297      C1540   1.553       .  S
C1298      H1305   1.085       .  S
C1298      C1299   1.383       .  D
C1299      C1300   1.528       .  S
C1299      C1557   1.507       .  S
C1300      C1304   1.536       .  S
C1300      C1302   1.525       .  S
C1300      H1306   1.111       .  S
C1301      H1307   1.084       .  S
C1301      C1302   1.364       .  D
C1302      C1571   1.465       .  S
C1303      H1308   1.086       .  S
C1303      C1304   1.360       .  D
C1304      C1599   1.480       .  S
Zr1309     O1310   2.439       .  S
Zr1309     O1311   2.433       .  S
Zr1309     O1312   2.465       .  S
Zr1309     O1315   2.454       .  S
Zr1309     O1317   2.389       .  S
Zr1309     O1318   2.383       .  S
Zr1309     O1319   2.404       .  S
Zr1309     O1320   2.400       .  S
O1310      H1366   0.990       .  S
O1310      H1374   0.990       .  S
O1311      C1331   1.285       .  A
O1312      C1333   1.291       .  A
O1313     Zr1323   2.405       .  S
O1313      C1332   1.278       .  A
O1314     Zr1322   2.419       .  S
O1314      C1333   1.282       .  A
O1315      C1332   1.290       .  A
O1316     Zr1324   2.406       .  S
O1316      C1331   1.280       .  A
O1317     Zr1322   2.392       .  S
O1317     Zr1324   2.381       .  S
O1318     Zr1323   2.378       .  S
O1318     Zr1324   2.374       .  S
O1318      H1353   0.966       .  S
O1319     Zr1322   2.403       .  S
O1319     Zr1339   2.386       .  S
O1319      H1356   0.965       .  S
O1320     Zr1323   2.388       .  S
O1320     Zr1339   2.384       .  S
Zr1321     O1346   2.438       .  S
Zr1321     O1340   2.433       .  S
Zr1321     O1348   2.443       .  S
Zr1321     O1336   2.442       .  S
Zr1321     O1327   2.394       .  S
Zr1321     O1328   2.404       .  S
Zr1321     O1329   2.378       .  S
Zr1321     O1330   2.385       .  S
Zr1322     O1341   2.437       .  S
Zr1322     O1334   2.436       .  S
Zr1322     O1335   2.428       .  S
Zr1322     O1328   2.393       .  S
Zr1322     O1329   2.386       .  S
Zr1323     O1325   2.434       .  S
Zr1323     O1347   2.439       .  S
Zr1323     O1349   2.406       .  S
Zr1323     O1327   2.385       .  S
Zr1323     O1330   2.386       .  S
Zr1324     O1350   2.436       .  S
Zr1324     O1351   2.436       .  S
Zr1324     O1326   2.437       .  S
Zr1324     O1327   2.389       .  S
Zr1324     O1328   2.394       .  S
O1325      H1362   0.990       .  S
O1326      H1357   0.990       .  S
O1326      H1371   0.990       .  S
O1328      H1354   0.966       .  S
O1329     Zr1339   2.378       .  S
O1330     Zr1339   2.381       .  S
O1330      H1355   0.966       .  S
C1331      C1473   1.473       .  S
C1332      C1428   1.496       .  S
C1333      C1414   1.492       .  S
O1334      H1370   0.990       .  S
O1335      C1337   1.285       .  A
O1336      C1337   1.285       .  A
C1337      C1445   1.494       .  S
O1338     Zr1339   2.439       .  S
O1338      H1367   0.990       .  S
Zr1339     O1342   2.438       .  S
Zr1339     O1343   2.440       .  S
Zr1339     O1344   2.401       .  S
O1340      C1345   1.284       .  A
O1341      H1358   0.990       .  S
O1341      H1373   0.990       .  S
O1342      H1359   0.990       .  S
O1343      H1363   0.990       .  S
O1343      H1372   0.990       .  S
O1344      C1345   1.279       .  A
C1345      C1400   1.479       .  S
O1346      H1365   0.990       .  S
O1346      H1369   0.990       .  S
O1347      H1361   0.990       .  S
O1347      H1368   0.990       .  S
O1348      C1352   1.286       .  A
O1349      C1352   1.280       .  A
O1350      H1360   0.990       .  S
O1351      H1364   0.990       .  S
C1352      C2020   1.473       .  S
C1375      C1376   1.531       .  S
C1375      C1381   1.542       .  S
C1375      C1943   1.537       .  S
C1375      C1403   1.527       .  S
C1376      H1383   1.086       .  S
C1377      C1942   1.544       .  S
C1377      C1431   1.487       .  S
C1378      C1941   1.547       .  S
C1378      C1946   1.544       .  S
C1378      C1380   1.539   1_565  S
C1378      H1384   1.110   1_565  S
C1379      C1939   1.536   1_545  S
C1379      H1385   1.085       .  S
C1380      C1417   1.477       .  S
C1381      H1386   1.084       .  S
C1382      C1942   1.541       .  S
C1382      C1585   1.488       .  S
C1387      C1388   1.534       .  S
C1387      C1393   1.538       .  S
C1387      C1391   1.534       .  S
C1387      C1470   1.530       .  S
C1388      H1395   1.082       .  S
C1388      C1389   1.353       .  D
C1389      C1390   1.538       .  S
C1389      C1459   1.469       .  S
C1390      C1394   1.544       .  S
C1390      C1392   1.545       .  S
C1390      H1396   1.107       .  S
C1391      H1397   1.086       .  S
C1391      C1392   1.370       .  D
C1392      C1442   1.498       .  S
C1393      H1398   1.086       .  S
C1393      C1394   1.366       .  D
C1394      C1487   1.486       .  S
C1399      C1400   1.406       .  A
C1399      C1404   1.402       .  A
C1399      H1406   1.084       .  S
C1400      C1401   1.410       .  A
C1401      C1402   1.401       .  A
C1401      N1408   1.438       .  S
C1402      C1403   1.411       .  A
C1402      H1407   1.080       .  S
C1403      C1404   1.414       .  A
C1404      N1405   1.438       .  S
N1405      H1409   1.046       .  S
N1405      H1410   1.045       .  S
N1408      H1411   1.046       .  S
N1408      H1412   1.046       .  S
C1413      C1414   1.407       .  A
C1413      C1418   1.410       .  A
C1413      H1420   1.083       .  S
C1414      C1415   1.417       .  A
C1415      C1416   1.403       .  A
C1415      N1422   1.433       .  S
C1416      C1417   1.398       .  A
C1416      H1421   1.084       .  S
C1417      C1418   1.410       .  A
C1418      N1419   1.437       .  S
N1419      H1423   1.045       .  S
N1419      H1424   1.045       .  S
N1422      H1425   1.046       .  S
N1422      H1426   1.046       .  S
C1427      C1428   1.408       .  A
C1427      C1432   1.405       .  A
C1427      H1434   1.083       .  S
C1428      C1429   1.427       .  A
C1429      C1430   1.395       .  A
C1429      N1436   1.433       .  S
C1430      C1431   1.397       .  A
C1430      H1435   1.083       .  S
C1431      C1432   1.411       .  A
N1433      H1437   1.046       .  S
N1433      H1438   1.046       .  S
N1436      H1439   1.045       .  S
N1436      H1440   1.045       .  S
C1441      C1442   1.406       .  A
C1441      C1446   1.400       .  A
C1441      H1448   1.084       .  S
C1442      C1443   1.413       .  A
C1443      C1444   1.404       .  A
C1443      N1450   1.432       .  S
C1444      C1445   1.407       .  A
C1444      H1449   1.084       .  S
C1445      C1446   1.419       .  A
C1446      N1447   1.432       .  S
N1447      H1451   1.044       .  S
N1447      H1452   1.045       .  S
N1450      H1453   1.046       .  S
N1450      H1454   1.045       .  S
C1455      C1456   1.401       .  A
C1455      C1460   1.397       .  A
C1455      H1462   1.084       .  S
C1456      C1916   1.471   1_545  S
C1456      C1457   1.412       .  A
C1457      C1458   1.407       .  A
C1457      N2028   1.437   1_545  S
C1458      C1459   1.400       .  A
C1458      H1463   1.082       .  S
C1459      C1460   1.411       .  A
C1460      N1461   1.440       .  S
N1461      H1465   1.046       .  S
N1461      H1466   1.042       .  S
N1464      C2021   1.437       .  S
N1464      H1467   1.046       .  S
N1464      H1468   1.046       .  S
C1469      C1470   1.415       .  A
C1469      C1474   1.399       .  A
C1469      H1476   1.077       .  S
C1470      C1471   1.416       .  A
C1471      N1478   1.438       .  S
C1472      C1473   1.404       .  A
C1472      H1477   1.084       .  S
C1474      N1475   1.439       .  S
N1475      H1479   1.046       .  S
N1478      H1481   1.045       .  S
N1478      H1482   1.046       .  S
C1483      C1484   1.406       .  A
C1483      C1488   1.403       .  A
C1483      H1490   1.084       .  S
C1484      C1485   1.407       .  A
C1485      C1486   1.405       .  A
C1485      N1492   1.432       .  S
C1486      C1487   1.406       .  A
C1486      H1491   1.084       .  S
C1487      C1488   1.408       .  A
C1488      N1489   1.431       .  S
N1489      H1493   1.046       .  S
N1489      H1494   1.046       .  S
N1492      H1495   1.046       .  S
N1492      H1496   1.045       .  S
C1497      C1498   1.407       .  A
C1497      C1502   1.406       .  A
C1497      H1504   1.084       .  S
C1498      C1499   1.416       .  A
C1499      C1500   1.411       .  A
C1499      N1506   1.439       .  S
C1500      C1501   1.419       .  A
C1500      H1505   1.076       .  S
C1501      C1502   1.414       .  A
C1502      N1503   1.433       .  S
N1503      H1507   1.045       .  S
N1503      H1508   1.046       .  S
N1506      H2073   1.041       .  S
N1506      H1510   1.046       .  S
H1509      N2070   1.041       .  S
C1511      C1512   1.415       .  A
C1511      C1516   1.403       .  A
C1511      H1518   1.085       .  S
C1512      C1513   1.419       .  A
C1513      C1514   1.414       .  A
C1513      N1520   1.437       .  S
C1514      C1515   1.412       .  A
C1514      H1519   1.083       .  S
C1515      C1516   1.408       .  A
C1516      N1517   1.433       .  S
N1517      H1521   1.044       .  S
N1517      H1522   1.045       .  S
C1525      C1526   1.402       .  A
C1525      C1530   1.404       .  A
C1525      H1532   1.084       .  S
C1526      C1527   1.405       .  A
C1527      C1528   1.394       .  A
C1527      N1534   1.434       .  S
C1528      C1529   1.414       .  A
C1528      H1533   1.083       .  S
C1529      C1530   1.417       .  A
C1530      N1531   1.438       .  S
N1531      H1535   1.046       .  S
N1531      H1536   1.045       .  S
N1534      H1537   1.043       .  S
N1534      H1538   1.046       .  S
C1539      C1540   1.423       .  A
C1539      C1544   1.419       .  A
C1539      H1546   1.079       .  S
C1540      C1541   1.417       .  A
C1541      C1542   1.409       .  A
C1541      N1548   1.438       .  S
C1542      C1543   1.410       .  A
C1542      H1547   1.084       .  S
C1543      C1544   1.408       .  A
C1544      N2109   1.438       .  S
N1545      C2108   1.438   1_545  S
N1545      H1549   1.046       .  S
N1545      H1550   1.046       .  S
N1548      H1551   1.045       .  S
N1548      H1552   1.045       .  S
C1553      C1554   1.414       .  A
C1553      C1558   1.410       .  A
C1553      H1560   1.083       .  S
C1554      C1555   1.411       .  A
C1555      C1556   1.423       .  A
C1555      N1562   1.436       .  S
C1556      C1557   1.416       .  A
C1556      H1561   1.083       .  S
C1557      C1558   1.405       .  A
C1558      N1559   1.437       .  S
N1559      H1563   1.046       .  S
N1559      H1564   1.046       .  S
N1562      H1565   1.045       .  S
N1562      H1566   1.046       .  S
C1567      C1568   1.412       .  A
C1567      C1572   1.396       .  A
C1567      H1574   1.083       .  S
C1568      C1569   1.422       .  A
C1569      C1570   1.396       .  A
C1569      N1576   1.433       .  S
C1570      C1571   1.399       .  A
C1570      H1575   1.084       .  S
C1571      C1572   1.399       .  A
C1572      N1573   1.433       .  S
N1573      H1577   1.046       .  S
N1573      H1578   1.045       .  S
N1576      H1579   1.043       .  S
N1576      H1580   1.045       .  S
C1581      C1586   1.410   1_556  A
C1581      H1588   1.084       .  S
C1582      C2147   1.416   1_545  A
C1583      C2146   1.415       .  A
C1583      C1584   1.405   1_556  A
C1583      N1590   1.438       .  S
C1584      C1585   1.402       .  A
C1584      H1589   1.084       .  S
C1586      N1587   1.437       .  S
N1587      H1591   1.046       .  S
N1587      H1592   1.045       .  S
N1590      H1593   1.045       .  S
N1590      H1594   1.046       .  S
C1595      C1596   1.403       .  A
C1595      C1600   1.407       .  A
C1595      H1602   1.084       .  S
C1596      C1597   1.410       .  A
C1597      C1598   1.398       .  A
C1597      N1604   1.432       .  S
C1598      C1599   1.399       .  A
C1598      H1603   1.084       .  S
C1599      C1600   1.412       .  A
C1600      N1601   1.432       .  S
N1601      H1605   1.045       .  S
N1601      H1606   1.046       .  S
N1604      H1607   1.046       .  S
N1604      H1608   1.046       .  S
C1609      C1610   1.406       .  A
C1609      C1614   1.409       .  A
C1609      H1616   1.083       .  S
C1610      C1611   1.419       .  A
C1611      C1612   1.401       .  A
C1611      N1618   1.433       .  S
C1612      C1613   1.396       .  A
C1612      H1617   1.082       .  S
C1613      C1614   1.411       .  A
N1615      H1619   1.046       .  S
N1615      H1620   1.046       .  S
N1618      H1621   1.046       .  S
N1618      H1622   1.046       .  S
C1623      C1624   1.396       .  A
C1623      C1628   1.398       .  A
C1623      H1630   1.084       .  S
C1624      C1625   1.406       .  A
C1625      C1626   1.403       .  A
C1625      N1632   1.440       .  S
C1626      C1627   1.414       .  A
C1626      H1631   1.074       .  S
C1627      C1628   1.418       .  A
C1628      N2193   1.433       .  S
N1629      C2192   1.434       .  S
N1629      H1633   1.046       .  S
N1629      H1634   1.045       .  S
N1632      H1635   1.046       .  S
N1632      H1636   1.046       .  S
C1637      C1638   1.407       .  A
C1637      C1642   1.407       .  A
C1637      H1644   1.083       .  S
C1638      C1639   1.423       .  A
C1639      C1640   1.408       .  A
C1639      N1646   1.438       .  S
C1640      C1641   1.399       .  A
C1641      C1642   1.415       .  A
C1642      N1643   1.433   1_655  S
N1643      H1647   1.045       .  S
N1643      H1648   1.046       .  S
N1646      H1649   1.045       .  S
N1646      H1650   1.046   1_545  S
C1651      C1652   1.399       .  A
C1651      C1656   1.404       .  A
C1651      H1658   1.082       .  S
C1652      C1653   1.413       .  A
C1653      C1654   1.406       .  A
C1653      N1660   1.432       .  S
C1654      C1655   1.407       .  A
C1654      H1659   1.083       .  S
C1655      C1656   1.422       .  A
C1656      N1657   1.433       .  S
N1657      H1661   1.046       .  S
N1657      H1662   1.046       .  S
N1660      H1663   1.046       .  S
N1660      H1664   1.046       .  S
C1665      C1670   1.402       .  A
C1665      H1672   1.083       .  S
C1666      C1667   1.410       .  A
C1667      N1674   1.434   1_455  S
C1668      C1669   1.405       .  A
C1668      H1673   1.076       .  S
C1669      C1670   1.417       .  A
C1670      N1671   1.433       .  S
N1671      H1675   1.045       .  S
N1671      H1676   1.046       .  S
N1674      H1677   1.046       .  S
N1674      H1678   1.046   1_655  S
C1679      C1680   1.406       .  A
C1679      C1684   1.402       .  A
C1679      H2250   1.084       .  S
C1680      C1717   1.484       .  S
C1680      C1681   1.421       .  A
C1681      C1682   1.402       .  A
C1681      N1688   1.439       .  S
C1682      C1683   1.395       .  A
C1682      H1687   1.082       .  S
C1683      C1684   1.405       .  A
C1684      N1685   1.432       .  S
N1685      H1689   1.046       .  S
N1685      H1690   1.046       .  S
H1686      C2243   1.084   1_545  S
N1688      H1691   1.046       .  S
N1688      H1692   1.046       .  S
Zr1693     O1694   2.439       .  S
Zr1693     O1695   2.432       .  S
Zr1693     O1696   2.452       .  S
Zr1693     O1699   2.452       .  S
Zr1693     O1701   2.388       .  S
Zr1693     O1702   2.380       .  S
Zr1693     O1703   2.406       .  S
Zr1693     O1704   2.401       .  S
O1694      H1750   0.990       .  S
O1694      H1758   0.990       .  S
O1695      C1715   1.284       .  A
O1696      C1717   1.289       .  A
O1697     Zr1707   2.406       .  S
O1697      C1716   1.279       .  A
O1698     Zr1706   2.400       .  S
O1698      C1717   1.278       .  A
O1699      C1716   1.289       .  A
O1700     Zr1708   2.417       .  S
O1700      C1715   1.281       .  A
O1701     Zr1706   2.391       .  S
O1701     Zr1708   2.374       .  S
O1702     Zr1707   2.381       .  S
O1702     Zr1708   2.376       .  S
O1702      H1737   0.965       .  S
O1703     Zr1706   2.396       .  S
O1703     Zr1723   2.379       .  S
O1703      H1740   0.965       .  S
O1704     Zr1707   2.382       .  S
O1704     Zr1723   2.392       .  S
Zr1705     O1730   2.440       .  S
Zr1705     O1724   2.441       .  S
Zr1705     O1732   2.458       .  S
Zr1705     O1720   2.465       .  S
Zr1705     O1711   2.405       .  S
Zr1705     O1712   2.405       .  S
Zr1705     O1713   2.382       .  S
Zr1705     O1714   2.390       .  S
Zr1706     O1725   2.437       .  S
Zr1706     O1718   2.434       .  S
Zr1706     O1719   2.416       .  S
Zr1706     O1712   2.389       .  S
Zr1706     O1713   2.382       .  S
Zr1707     O1709   2.435       .  S
Zr1707     O1731   2.439       .  S
Zr1707     O1733   2.388       .  S
Zr1707     O1711   2.391       .  S
Zr1707     O1714   2.385       .  S
Zr1708     O1734   2.435       .  S
Zr1708     O1735   2.435       .  S
Zr1708     O1710   2.438       .  S
Zr1708     O1711   2.396       .  S
Zr1708     O1712   2.393       .  S
O1709      H1746   0.990       .  S
O1710      H1741   0.990       .  S
O1710      H1755   0.990       .  S
O1712      H1738   0.966       .  S
O1713     Zr1723   2.376       .  S
O1714     Zr1723   2.379       .  S
O1714      H1739   0.965       .  S
C1715      C2188   1.471       .  S
C1716      C2219   1.495       .  S
O1718      H1754   0.990       .  S
O1719      C1721   1.281       .  A
O1720      C1721   1.291       .  A
C1721      C2202   1.501       .  S
O1722     Zr1723   2.435       .  S
O1722      H1751   0.990       .  S
Zr1723     O1726   2.436       .  S
Zr1723     O1727   2.439       .  S
Zr1723     O1728   2.402       .  S
O1724      C1729   1.286       .  A
O1725      H1742   0.990       .  S
O1725      H1757   0.990       .  S
O1726      H1743   0.990       .  S
O1727      H1747   0.990       .  S
O1727      H1756   0.990       .  S
O1728      C1729   1.278       .  A
C1729      C2230   1.485   1_655  S
O1730      H1749   0.990       .  S
O1730      H1753   0.990       .  S
O1731      H1745   0.990       .  S
O1731      H1752   0.990       .  S
O1732      C1736   1.291       .  A
O1733      C1736   1.275       .  A
O1734      H1744   0.990       .  S
O1735      H1748   0.990       .  S
C1736      C2174   1.491       .  S
C1759      C1760   1.537       .  S
C1759      C1765   1.545       .  S
C1759      C1763   1.527       .  S
C1759      C2233   1.527       .  S
C1760      H1767   1.086       .  S
C1760      C1761   1.369       .  D
C1761      C1762   1.545       .  S
C1761      C2216   1.486       .  S
C1762      C1766   1.539       .  S
C1762      C1764   1.538       .  S
C1762      H1768   1.111       .  S
C1763      H1769   1.087       .  S
C1763      C1764   1.355       .  D
C1764      C2247   1.470       .  S
C1765      H1770   1.081       .  S
C1765      C1766   1.365       .  D
C1766      C2160   1.483       .  S
C1771      C1777   1.537       .  S
C1771      C1775   1.545       .  S
C1771      C2191   1.533       .  S
C1772      H1779   1.087       .  S
C1773      C1774   1.546   1_455  S
C1773      C2177   1.478   1_455  S
C1774      H1780   1.110       .  S
C1775      H1781   1.079       .  S
C1776      C2205   1.496   1_455  S
C1777      H1782   1.086       .  S
C1777      C1778   1.368       .  D
C1778      C2146   1.488       .  S
Zr1783     O1784   2.438       .  S
Zr1783     O1785   2.438       .  S
O1784      H1840   0.990       .  S
O1784      H1848   0.990       .  S
O1785      C1805   1.285       .  A
O1786      C1807   1.303       .  A
O1787     Zr1797   2.389       .  S
O1787      C1806   1.277       .  A
O1788     Zr1796   2.376       .  S
O1788      C1807   1.274       .  A
O1789      C1806   1.298   1_545  A
O1790     Zr1798   2.396   1_655  S
O1790      C1805   1.279       .  A
O1791     Zr1796   2.382       .  S
O1792     Zr1797   2.377   1_545  S
O1792      H1827   0.965       .  S
O1793     Zr1796   2.398       .  S
O1793      H1830   0.965       .  S
O1794     Zr1797   2.383       .  S
Zr1795     O1820   2.438       .  S
Zr1795     O1814   2.442       .  S
Zr1795     O1822   2.511       .  S
Zr1795     O1804   2.398       .  S
Zr1796     O1815   2.438       .  S
Zr1796     O1808   2.436       .  S
Zr1796     O1809   2.381       .  S
Zr1796     O1802   2.392       .  S
Zr1796     O1803   2.381       .  S
Zr1797     O1799   2.434       .  S
Zr1797     O1821   2.441       .  S
Zr1797     O1823   2.378       .  S
Zr1797     O1801   2.387       .  S
O1799      H1836   0.990       .  S
O1800      H1831   0.990       .  S
O1800      H1845   0.990       .  S
O1802      H1828   0.966       .  S
O1804     Zr1813   2.379       .  S
C1805      C2093   1.485       .  S
C1806      C2107   1.502       .  S
C1807      C2118   1.501       .  S
O1808      H1844   0.990       .  S
O1809      C1811   1.275       .  A
O1810      C1811   1.299       .  A
C1811      C2062   1.490       .  S
O1812     Zr1813   2.434       .  S
O1812      H1841   0.990   1_565  S
Zr1813     O1818   2.409       .  S
O1814      C1819   1.285       .  A
O1815      H1832   0.990       .  S
O1815      H1847   0.989       .  S
O1817      H1846   0.990       .  S
O1818      C1819   1.281       .  A
C1819      C2132   1.494       .  S
O1820      H1839   0.990       .  S
O1820      H1843   0.990       .  S
O1821      H1835   0.990       .  S
O1821      H1842   0.990       .  S
O1823      C1826   1.275       .  A
O1825      H1838   0.990       .  S
C1826      C2076   1.495       .  S
C1849      C1850   1.531       .  S
C1849      C1855   1.559       .  S
C1849      C1853   1.544       .  S
C1849      C2065   1.548       .  S
C1850      H1857   1.087       .  S
C1850      C1851   1.360       .  D
C1851      C1852   1.539       .  S
C1851      C2048   1.486       .  S
C1852      C1856   1.530       .  S
C1852      C1854   1.527       .  S
C1852      H1858   1.110       .  S
C1853      H1859   1.082       .  S
C1853      C1854   1.362       .  D
C1854      C2090   1.467       .  S
C1855      H1860   1.085       .  S
C1855      C1856   1.381       .  D
C1856      C2079   1.499       .  S
C1861      C1862   1.566       .  S
C1861      C1867   1.530       .  S
C1861      C1865   1.543       .  S
C1861      C2104   1.552       .  S
C1862      H1869   1.085       .  S
C1862      C1863   1.383       .  D
C1863      C1864   1.529       .  S
C1863      C2121   1.505       .  S
C1864      C1868   1.541       .  S
C1864      C1866   1.530       .  S
C1864      H1870   1.111       .  S
C1865      H1871   1.085       .  S
C1865      C1866   1.365       .  D
C1866      C2135   1.472       .  S
C1867      H1872   1.087       .  S
C1867      C1868   1.359       .  D
C1868      C2163   1.483       .  S
Zr1873     O1874   2.441       .  S
Zr1873     O1875   2.427       .  S
Zr1873     O1876   2.467       .  S
Zr1873     O1879   2.459       .  S
Zr1873     O1881   2.389       .  S
Zr1873     O1882   2.384       .  S
Zr1873     O1883   2.406       .  S
Zr1873     O1884   2.403       .  S
O1874      H1930   0.991       .  S
O1874      H1938   0.990       .  S
O1875      C1895   1.283       .  A
O1876      C1897   1.291       .  A
O1877     Zr1887   2.416       .  S
O1877      C1896   1.280       .  A
O1878     Zr1886   2.411       .  S
O1878      C1897   1.280       .  A
O1879      C1896   1.290       .  A
O1880     Zr1888   2.401       .  S
O1880      C1895   1.279       .  A
O1881     Zr1886   2.394       .  S
O1881     Zr1888   2.380       .  S
O1882     Zr1887   2.379       .  S
O1882     Zr1888   2.377       .  S
O1882      H1917   0.966       .  S
O1883     Zr1886   2.405       .  S
O1883     Zr1903   2.387       .  S
O1883      H1920   0.966       .  S
O1884     Zr1887   2.389       .  S
O1884     Zr1903   2.392       .  S
Zr1885     O1910   2.440       .  S
Zr1885     O1904   2.429       .  S
Zr1885     O1912   2.438       .  S
Zr1885     O1900   2.439       .  S
Zr1885     O1891   2.391       .  S
Zr1885     O1892   2.402       .  S
Zr1885     O1893   2.377       .  S
Zr1885     O1894   2.390       .  S
Zr1886     O1905   2.438       .  S
Zr1886     O1898   2.434       .  S
Zr1886     O1899   2.430       .  S
Zr1886     O1892   2.395       .  S
Zr1886     O1893   2.384       .  S
Zr1887     O1889   2.434       .  S
Zr1887     O1911   2.440       .  S
Zr1887     O1913   2.404       .  S
Zr1887     O1891   2.388       .  S
Zr1887     O1894   2.391       .  S
Zr1888     O1914   2.436       .  S
Zr1888     O1915   2.436       .  S
Zr1888     O1890   2.437       .  S
Zr1888     O1891   2.384       .  S
Zr1888     O1892   2.390       .  S
O1889      H1926   0.990       .  S
O1890      H1921   0.990       .  S
O1890      H1935   0.990       .  S
O1892      H1918   0.965       .  S
O1893     Zr1903   2.376       .  S
O1894     Zr1903   2.382       .  S
O1894      H1919   0.966       .  S
C1895      C2037   1.470       .  S
C1896      C1992   1.501       .  S
C1897      C1978   1.494       .  S
O1898      H1934   0.990       .  S
O1899      C1901   1.285       .  A
O1900      C1901   1.284       .  A
C1901      C2009   1.492       .  S
O1902     Zr1903   2.438       .  S
O1902      H1931   0.991       .  S
Zr1903     O1906   2.437       .  S
Zr1903     O1907   2.440       .  S
Zr1903     O1908   2.406       .  S
O1904      C1909   1.283       .  A
O1905      H1922   0.990       .  S
O1905      H1937   0.990       .  S
O1906      H1923   0.990       .  S
O1907      H1927   0.990       .  S
O1907      H1936   0.988       .  S
O1908      C1909   1.280       .  A
C1909      C1964   1.481       .  S
O1910      H1929   0.990       .  S
O1910      H1933   0.990       .  S
O1911      H1925   0.990       .  S
O1911      H1932   0.990       .  S
O1912      C1916   1.285       .  A
O1913      C1916   1.280       .  A
O1914      H1924   0.990       .  S
O1915      H1928   0.990       .  S
C1939      C1940   1.530       .  S
C1939      C1945   1.543       .  S
C1939      C1967   1.530       .  S
C1940      H1947   1.086       .  S
C1941      C1995   1.493       .  S
C1942      C1944   1.536       .  S
C1942      H1948   1.110       .  S
C1943      H1949   1.085       .  S
C1944      C1981   1.476       .  S
C1945      H1950   1.084       .  S
C1946      C2149   1.491       .  S
C1951      C1952   1.533       .  S
C1951      C1957   1.532       .  S
C1951      C1955   1.532       .  S
C1951      C2034   1.529       .  S
C1952      H1959   1.084       .  S
C1952      C1953   1.357       .  D
C1953      C1954   1.545       .  S
C1953      C2023   1.477       .  S
C1954      C1958   1.547       .  S
C1954      C1956   1.551       .  S
C1954      H1960   1.105       .  S
C1955      H1961   1.085       .  S
C1955      C1956   1.373       .  D
C1956      C2006   1.506       .  S
C1957      H1962   1.086       .  S
C1957      C1958   1.362       .  D
C1958      C2051   1.486       .  S
C1963      C1964   1.406       .  A
C1963      C1968   1.402       .  A
C1963      H1970   1.084       .  S
C1964      C1965   1.411       .  A
C1965      C1966   1.402       .  A
C1965      N1972   1.439       .  S
C1966      C1967   1.412       .  A
C1966      H1971   1.081       .  S
C1967      C1968   1.414       .  A
C1968      N1969   1.438       .  S
N1969      H1973   1.046       .  S
N1969      H1974   1.045       .  S
N1972      H1975   1.046       .  S
N1972      H1976   1.046       .  S
C1977      C1978   1.407       .  A
C1977      C1982   1.410       .  A
C1977      H1984   1.083       .  S
C1978      C1979   1.419       .  A
C1979      C1980   1.402       .  A
C1979      N1986   1.433       .  S
C1980      C1981   1.396       .  A
C1980      H1985   1.084       .  S
C1981      C1982   1.410       .  A
C1982      N1983   1.438       .  S
N1983      H1987   1.045       .  S
N1983      H1988   1.045       .  S
N1986      H1989   1.046       .  S
N1986      H1990   1.046       .  S
C1991      C1992   1.408       .  A
C1991      C1996   1.408       .  A
C1991      H1998   1.083       .  S
C1992      C1993   1.427       .  A
C1993      C1994   1.399       .  A
C1993      N2000   1.432       .  S
C1994      C1995   1.399       .  A
C1994      H1999   1.083       .  S
C1995      C1996   1.413       .  A
N1997      H2001   1.046       .  S
N1997      H2002   1.045       .  S
N2000      H2003   1.045       .  S
N2000      H2004   1.044       .  S
C2005      C2006   1.410       .  A
C2005      C2010   1.398       .  A
C2005      H2012   1.083       .  S
C2006      C2007   1.419       .  A
C2007      C2008   1.409       .  A
C2007      N2014   1.436       .  S
C2008      C2009   1.406       .  A
C2008      H2013   1.084       .  S
C2009      C2010   1.416       .  A
C2010      N2011   1.432       .  S
N2011      H2015   1.044       .  S
N2011      H2016   1.046       .  S
N2014      H2017   1.042       .  S
N2014      H2018   1.046       .  S
C2019      C2020   1.400       .  A
C2019      C2024   1.400       .  A
C2019      H2026   1.084       .  S
C2020      C2021   1.411       .  A
C2021      C2022   1.409       .  A
C2022      C2023   1.402       .  A
C2022      H2027   1.081       .  S
C2023      C2024   1.413       .  A
C2024      N2025   1.440       .  S
N2025      H2029   1.046       .  S
N2025      H2030   1.043       .  S
N2028      H2031   1.045       .  S
N2028      H2032   1.046       .  S
C2033      C2034   1.410       .  A
C2033      C2038   1.400       .  A
C2033      H2040   1.079       .  S
C2034      C2035   1.417       .  A
C2035      N2042   1.439       .  S
C2036      C2037   1.404       .  A
C2036      H2041   1.084       .  S
C2038      N2039   1.439       .  S
N2039      H2043   1.046       .  S
N2042      H2045   1.045       .  S
N2042      H2046   1.045       .  S
C2047      C2048   1.407       .  A
C2047      C2052   1.402       .  A
C2047      H2054   1.084       .  S
C2048      C2049   1.407       .  A
C2049      C2050   1.403       .  A
C2049      N2056   1.432       .  S
C2050      C2051   1.407       .  A
C2050      H2055   1.084       .  S
C2051      C2052   1.405       .  A
C2052      N2053   1.430       .  S
N2053      H2057   1.045       .  S
N2053      H2058   1.046       .  S
N2056      H2059   1.045       .  S
N2056      H2060   1.046       .  S
C2061      C2062   1.407       .  A
C2061      C2066   1.405       .  A
C2061      H2068   1.084       .  S
C2062      C2063   1.415       .  A
C2063      C2064   1.411       .  A
C2063      N2070   1.438       .  S
C2064      C2065   1.419       .  A
C2064      H2069   1.076       .  S
C2065      C2066   1.413       .  A
C2066      N2067   1.433       .  S
N2067      H2071   1.046       .  S
N2067      H2072   1.046       .  S
N2070      H2074   1.046       .  S
C2075      C2076   1.414       .  A
C2075      C2080   1.403       .  A
C2075      H2082   1.084       .  S
C2076      C2077   1.418       .  A
C2077      C2078   1.412       .  A
C2077      N2084   1.438       .  S
C2078      C2079   1.411       .  A
C2078      H2083   1.081       .  S
C2079      C2080   1.407       .  A
C2080      N2081   1.432       .  S
N2081      H2085   1.044       .  S
N2081      H2086   1.046       .  S
C2089      C2090   1.402       .  A
C2089      C2094   1.405       .  A
C2089      H2096   1.084       .  S
C2090      C2091   1.403       .  A
C2091      C2092   1.389       .  A
C2091      N2098   1.434       .  S
C2092      C2093   1.412       .  A
C2092      H2097   1.083       .  S
C2093      C2094   1.415       .  A
C2094      N2095   1.438       .  S
N2095      H2099   1.046       .  S
N2095      H2100   1.046       .  S
N2098      H2101   1.043       .  S
N2098      H2102   1.046       .  S
C2103      C2104   1.423       .  A
C2103      C2108   1.420       .  A
C2103      H2110   1.080       .  S
C2104      C2105   1.416       .  A
C2105      C2106   1.407       .  A
C2105      N2112   1.438       .  S
C2106      C2107   1.410       .  A
C2106      H2111   1.084       .  S
C2107      C2108   1.409       .  A
N2109      H2113   1.045       .  S
N2109      H2114   1.046       .  S
N2112      H2115   1.045       .  S
N2112      H2116   1.046       .  S
C2117      C2118   1.414       .  A
C2117      C2122   1.408       .  A
C2117      H2124   1.083       .  S
C2118      C2119   1.411       .  A
C2119      C2120   1.423       .  A
C2119      N2126   1.437       .  S
C2120      C2121   1.416       .  A
C2120      H2125   1.083       .  S
C2121      C2122   1.404       .  A
C2122      N2123   1.437       .  S
N2123      H2127   1.046       .  S
N2123      H2128   1.046       .  S
N2126      H2129   1.046       .  S
N2126      H2130   1.046       .  S
C2131      C2132   1.413       .  A
C2131      C2136   1.397       .  A
C2131      H2138   1.083       .  S
C2132      C2133   1.423       .  A
C2133      C2134   1.401       .  A
C2133      N2140   1.433       .  S
C2134      C2135   1.402       .  A
C2134      H2139   1.084       .  S
C2135      C2136   1.398       .  A
C2136      N2137   1.433       .  S
N2137      H2141   1.045       .  S
N2137      H2142   1.045       .  S
N2140      H2143   1.043       .  S
N2140      H2144   1.045       .  S
C2145      C2150   1.408   1_556  A
C2145      H2152   1.084       .  S
C2147      C2148   1.407   1_556  A
C2147      N2154   1.438       .  S
C2148      C2149   1.403       .  A
C2148      H2153   1.084       .  S
C2150      N2151   1.437       .  S
N2151      H2155   1.046       .  S
N2151      H2156   1.045       .  S
N2154      H2157   1.044       .  S
N2154      H2158   1.046       .  S
C2159      C2160   1.402       .  A
C2159      C2164   1.406       .  A
C2159      H2166   1.084       .  S
C2160      C2161   1.411       .  A
C2161      C2162   1.402       .  A
C2161      N2168   1.432       .  S
C2162      C2163   1.400       .  A
C2162      H2167   1.084       .  S
C2163      C2164   1.412       .  A
C2164      N2165   1.432       .  S
N2165      H2169   1.046       .  S
N2165      H2170   1.046       .  S
N2168      H2171   1.046       .  S
N2168      H2172   1.046       .  S
C2173      C2174   1.405       .  A
C2173      C2178   1.405       .  A
C2173      H2180   1.083       .  S
C2174      C2175   1.423       .  A
C2175      C2176   1.399       .  A
C2175      N2182   1.434       .  S
C2176      C2177   1.394       .  A
C2176      H2181   1.079       .  S
C2177      C2178   1.412       .  A
N2179      H2183   1.046       .  S
N2179      H2184   1.045       .  S
N2182      H2185   1.046       .  S
N2182      H2186   1.046       .  S
C2187      C2188   1.398       .  A
C2187      C2192   1.400       .  A
C2187      H2194   1.084       .  S
C2188      C2189   1.407       .  A
C2189      C2190   1.405       .  A
C2189      N2196   1.439       .  S
C2190      C2191   1.413       .  A
C2190      H2195   1.075       .  S
C2191      C2192   1.418       .  A
N2193      H2197   1.046   1_545  S
N2193      H2198   1.046       .  S
N2196      H2199   1.046       .  S
N2196      H2200   1.046       .  S
C2201      C2202   1.407       .  A
C2201      C2206   1.406       .  A
C2201      H2208   1.083       .  S
C2202      C2203   1.424       .  A
C2203      C2204   1.409       .  A
C2203      N2210   1.438       .  S
C2204      C2205   1.399       .  A
C2205      C2206   1.413       .  A
C2206      N2207   1.432   1_655  S
N2207      H2211   1.046       .  S
N2207      H2212   1.046       .  S
N2210      H2213   1.045       .  S
N2210      H2214   1.046       .  S
C2215      C2216   1.398       .  A
C2215      C2220   1.403       .  A
C2215      H2222   1.082       .  S
C2216      C2217   1.410       .  A
C2217      C2218   1.404       .  A
C2217      N2224   1.432       .  S
C2218      C2219   1.406       .  A
C2218      H2223   1.083       .  S
C2219      C2220   1.422       .  A
C2220      N2221   1.433       .  S
N2221      H2225   1.046       .  S
N2221      H2226   1.046       .  S
N2224      H2227   1.046       .  S
N2224      H2228   1.046       .  S
C2229      C2234   1.404       .  A
C2229      H2236   1.084       .  S
C2230      C2231   1.412       .  A
C2231      N2238   1.434   1_455  S
C2232      C2233   1.405       .  A
C2232      H2237   1.076       .  S
C2233      C2234   1.419       .  A
C2234      N2235   1.433       .  S
N2235      H2239   1.046       .  S
N2235      H2240   1.046       .  S
N2238      H2241   1.046       .  S
N2238      H2242   1.046   1_655  S
C2243      C2244   1.406       .  A
C2243      C2248   1.404       .  A
C2244      C2245   1.418       .  A
C2245      C2246   1.400       .  A
C2245      N2252   1.433       .  S
C2246      C2247   1.395       .  A
C2246      H2251   1.083       .  S
C2247      C2248   1.406       .  A
C2248      N2249   1.432       .  S
N2249      H2253   1.046       .  S
N2249      H2254   1.045       .  S
N2252      H2255   1.046       .  S
N2252      H2256   1.046       .  S
