geometry optimzed in LAMMPS
_audit_creation_date              2020-11-30 
_audit_creation_method            'lammps2cif' 
_symmetry_space_group_name_H-M    'P1' 
_symmetry_Int_Tables_number       1 
_symmetry_cell_setting            triclinic 
loop_ 
_symmetry_equiv_pos_as_xyz 
  x,y,z 
_cell_length_a                    23.76156859 
_cell_length_b                    46.05401001126526 
_cell_length_c                    33.65971470959427 
_cell_angle_alpha                 90.65540363556501 
_cell_angle_beta                  89.75313388615444 
_cell_angle_gamma                 89.89566247690644 
loop_ 
_atom_site_label 
_atom_site_type_symbol 
_atom_site_fract_x 
_atom_site_fract_y 
_atom_site_fract_z 
_atom_site_charge 
N1          N  0.06718457  0.99790242  0.01157865    -0.35700
N2          N  0.98403586  0.04373077  0.00215614    -0.56300
N3          N  0.89641684  0.99961356  0.99760656    -0.35700
N4          N  0.97958705  0.45387586  0.00374740    -0.56300
C5          C  0.10157270  0.02115941  0.00732216     0.27900
C6          C  0.09920061  0.47362309  0.00790549     0.27900
C7          C  0.87025689  0.02346578  0.98347400     0.27900
C8          C  0.86786840  0.47619634  0.98380714     0.27900
C9          C  0.02836965  0.05964745  0.01484773     0.36500
C10         C  0.93760876  0.06037610  0.00750429     0.36500
C11         C  0.02288422  0.43675754  0.01492109     0.36500
C12         C  0.93219309  0.43783964  0.00717586     0.36500
C13         C  0.15649599  0.01138571  0.00230366    -0.21000
C14         C  0.15494491  0.48159336  0.00247233    -0.21000
C15         C  0.82540470  0.01511648  0.95976297    -0.21000
C16         C  0.82404016  0.48528275  0.95984040    -0.21000
C17         C  0.00992282  0.08662151  0.02827051    -0.22100
C18         C  0.95241446  0.08683140  0.02442867    -0.22100
C19         C  0.00283728  0.40960931  0.02528381    -0.22100
C20         C  0.94543117  0.41045916  0.02108629    -0.22100
C21         C  0.08526935  0.05082270  0.01116321    -0.17400
C22         C  0.08037373  0.44457920  0.01233905    -0.17400
C23         C  0.87829706  0.44707668  0.99466694    -0.17400
C24         C  0.88323511  0.05242777  0.99424692    -0.17400
H25         H  0.19455928  0.02408543  0.00030818     0.15500
H26         H  0.19139573  0.46755949  0.00026071     0.15500
H27         H  0.79649106  0.02905289  0.94409930     0.15500
H28         H  0.79397592  0.47185405  0.94410497     0.15500
H29         H  0.03469042  0.10434952  0.04005381     0.13800
H30         H  0.92505645  0.10456886  0.03321674     0.13800
H31         H  0.02665561  0.39092044  0.03468194     0.13800
H32         H  0.91722832  0.39267069  0.02725128     0.13800
H33         H  0.02529428  0.99857382  0.02028875     0.27000
H34         H  0.92725325  0.99948427  0.01951179     0.27000
N35         N  0.10132655  0.00045047  0.49518267    -0.35700
N36         N  0.01666468  0.04576661  0.49339359    -0.56300
N37         N  0.92897437  0.00147910  0.49991692    -0.35700
N38         N  0.01401162  0.45608426  0.49500752    -0.56300
C39         C  0.13281208  0.02372967  0.48514766     0.27900
C40         C  0.13123972  0.47646274  0.48494677     0.27900
C41         C  0.89764507  0.02518239  0.49156582     0.27900
C42         C  0.89629312  0.47788864  0.49318373     0.27900
C43         C  0.06275309  0.06241144  0.49954455     0.36500
C44         C  0.97159376  0.06295527  0.50085646     0.36500
C45         C  0.05964789  0.43921564  0.50129801     0.36500
C46         C  0.96863708  0.43980150  0.50421771     0.36500
C47         C  0.18300554  0.01442730  0.46809440    -0.21000
C48         C  0.18201865  0.48459766  0.46796593    -0.21000
C49         C  0.84431351  0.01655367  0.47971143    -0.21000
C50         C  0.84346536  0.48672374  0.48073023    -0.21000
C51         C  0.04689046  0.09027514  0.51086795    -0.22100
C52         C  0.98911089  0.09063798  0.51161101    -0.22100
C53         C  0.04318934  0.41215618  0.51468494    -0.22100
C54         C  0.98549736  0.41250534  0.51643132    -0.22100
C55         C  0.11873269  0.05307988  0.49302143    -0.17400
C56         C  0.11562733  0.44752076  0.49296073    -0.17400
C57         C  0.91218752  0.44869407  0.49941801    -0.17400
C58         C  0.91488662  0.05440367  0.49619065    -0.17400
H59         H  0.21694497  0.02774089  0.45696090     0.15500
H60         H  0.21513372  0.47050225  0.45681492     0.15500
H61         H  0.80951316  0.03031282  0.47120621     0.15500
H62         H  0.80793572  0.47312311  0.47308576     0.15500
H63         H  0.07399653  0.10847480  0.51781285     0.13800
H64         H  0.96301864  0.10916687  0.51930107     0.13800
H65         H  0.06980035  0.39401576  0.52243195     0.13800
H66         H  0.95905355  0.39469248  0.52569982     0.13800
H67         H  0.06489747  0.00090259  0.51241050     0.27000
H68         H  0.96826492  0.00154198  0.51332716     0.27000
O69         O  0.36749465  0.21434225  0.02696378    -0.77600
C70         C  0.49441239  0.24915232  0.10760353     0.83400
O71         O  0.40566584  0.30728668  0.97343583    -0.78700
O72         O  0.60275392  0.28435116  0.01145618    -0.80200
O73         O  0.54493420  0.18479211  0.97500666    -0.80000
O74         O  0.40436515  0.18962031  0.97579105    -0.78600
Zn75       Zn  0.41792993  0.24959676  0.03458193     1.55700
O76         O  0.60232711  0.21256463  0.01139132    -0.80000
Cd77       Cd  0.47742855  0.21227113  0.96396367     1.59700
Cd78       Cd  0.47846318  0.28351807  0.96261379     1.59600
O79         O  0.47996865  0.22225395  0.90397737    -0.80000
O80         O  0.48116423  0.24854975  0.99737176    -1.90500
Cd81       Cd  0.55452587  0.24866339  0.02635458     1.59900
O82         O  0.48069400  0.27076601  0.90333009    -0.80000
O83         O  0.54007775  0.24884988  0.08749037    -0.78600
C84         C  0.36856840  0.30564379  0.00081231     0.83900
C85         C  0.36660848  0.19303665  0.00241884     0.83600
O86         O  0.44628279  0.24952268  0.09100747    -0.77600
C87         C  0.59170287  0.18914747  0.99244752     0.84400
O88         O  0.36962931  0.28563367  0.02668408    -0.77700
C89         C  0.48145957  0.24622576  0.88538769     0.84500
C90         C  0.59330026  0.30689710  0.99094482     0.84800
O91         O  0.54725049  0.31066394  0.97238382    -0.80100
O92         O  0.39902699  0.28675310  0.47521429    -0.77600
C93         C  0.51464261  0.25295942  0.38505952     0.83400
O94         O  0.44688071  0.18902417  0.51655257    -0.78700
O95         O  0.63340945  0.21543216  0.47163784    -0.80200
O96         O  0.58578600  0.31121450  0.52326171    -0.80000
O97         O  0.44540099  0.31235356  0.52110354    -0.78600
Zn98       Zn  0.44731268  0.25141614  0.46296605     1.55700
O99         O  0.63191018  0.28809323  0.47437732    -0.80000
Cd100      Cd  0.51451555  0.28631868  0.53198396     1.59700
Cd101      Cd  0.51513950  0.21551262  0.52963842     1.59600
O102        O  0.51135428  0.27452945  0.59110996    -0.80000
O103        O  0.51430318  0.25124071  0.49618607    -1.90500
Cd104      Cd  0.58356423  0.25175466  0.46196134     1.59900
O105        O  0.51071410  0.22606862  0.58962439    -0.80000
O106        O  0.56226517  0.25272570  0.40234816    -0.78600
C107        C  0.40531459  0.19262696  0.49330282     0.83900
C108        C  0.40360515  0.30894175  0.49794453     0.83600
O109        O  0.46850863  0.25259468  0.40452425    -0.77600
C110        C  0.62723859  0.30902591  0.49926331     0.84400
O111        O  0.40061711  0.21520736  0.47195385    -0.77700
C112        C  0.50965172  0.25014927  0.60863123     0.84500
C113        C  0.62964489  0.19448203  0.49593331     0.84800
O114        O  0.58826792  0.19195410  0.51988445    -0.80100
C115        C  0.49773405  0.23422881  0.70997683     0.30600
C116        C  0.49220035  0.21658282  0.74352780    -0.35700
C117        C  0.48965598  0.23117427  0.78034520     0.16600
C118        C  0.49222296  0.26104002  0.78381820     0.22400
C119        C  0.49771156  0.27863813  0.75033310    -0.33800
C120        C  0.50037067  0.26407861  0.71361391     0.16500
O121        O  0.50097913  0.22528378  0.67265397    -0.25800
C122        C  0.50575944  0.24974728  0.65221179     0.06300
C123        C  0.50563062  0.27454397  0.67617316    -0.30700
O124        O  0.48931848  0.27016644  0.82099939    -0.22500
C125        C  0.48484425  0.24587629  0.84175532    -0.02500
C126        C  0.48488816  0.22089332  0.81803761    -0.17000
H127        H  0.49014423  0.19315509  0.74110109     0.21000
H128        H  0.49988241  0.30206336  0.75276020     0.19400
H129        H  0.50876938  0.29699417  0.66725396     0.19300
H130        H  0.48208247  0.19849930  0.82725337     0.15200
C131        C  0.48050333  0.25209909  0.28370286     0.30600
C132        C  0.44494380  0.25103134  0.25054531    -0.35700
C133        C  0.47169742  0.25013583  0.21331685     0.16600
C134        C  0.52947655  0.25026531  0.20890374     0.22400
C135        C  0.56506116  0.25129068  0.24209180    -0.33800
C136        C  0.53829289  0.25223482  0.27935376     0.16500
O137        O  0.46449258  0.25271927  0.32128833    -0.25800
C138        C  0.51264911  0.25325064  0.34133973     0.06300
C139        C  0.55993945  0.25307143  0.31676484    -0.30700
O140        O  0.54537235  0.24968387  0.17125675    -0.22500
C141        C  0.49710020  0.24921595  0.15131635    -0.02500
C142        C  0.44993699  0.24937570  0.17599311    -0.17000
H143        H  0.39957771  0.25091466  0.25356008     0.21000
H144        H  0.61042486  0.25139753  0.23907712     0.19400
H145        H  0.60381898  0.25313686  0.32527219     0.19300
H146        H  0.40601044  0.24925601  0.16759662     0.15200
C147        C  0.23691709  0.40482462  0.50551054     0.30600
C148        C  0.28982745  0.39767932  0.52097062    -0.35700
C149        C  0.31215386  0.37082741  0.50868538     0.16600
C150        C  0.28454772  0.35239375  0.48270456     0.22400
C151        C  0.23172401  0.35960312  0.46712514    -0.33800
C152        C  0.20918080  0.38634166  0.47967567     0.16500
O153        O  0.20790919  0.42859759  0.51351964    -0.25800
C154        C  0.16072239  0.42521292  0.49284179     0.06300
C155        C  0.15934319  0.39939159  0.47097983    -0.30700
O156        O  0.31297669  0.32828835  0.47545037    -0.22500
C157        C  0.35931359  0.33125523  0.49716421    -0.02500
C158        C  0.36110224  0.35731530  0.51847403    -0.17000
H159        H  0.31178214  0.41193319  0.54143278     0.21000
H160        H  0.20953291  0.34524416  0.44693400     0.19400
H161        H  0.12641157  0.39148493  0.45157357     0.19300
H162        H  0.39366249  0.36510678  0.53828225     0.15200
C163        C  0.74459007  0.35371334  0.48553379     0.30600
C164        C  0.79554243  0.36247413  0.46833940    -0.35700
C165        C  0.81892758  0.38811085  0.48375057     0.16600
C166        C  0.79381882  0.40416759  0.51386265     0.22400
C167        C  0.74283768  0.39537583  0.53111562    -0.33800
C168        C  0.71953866  0.36964080  0.51579796     0.16500
O169        O  0.71553815  0.33038600  0.47574841    -0.25800
C170        C  0.67130279  0.33133102  0.50007277     0.06300
C171        C  0.67152786  0.35527678  0.52567391    -0.30700
O172        O  0.82296705  0.42754261  0.52346644    -0.22500
C173        C  0.86754019  0.42624756  0.49942000    -0.02500
C174        C  0.86711798  0.40224764  0.47396985    -0.17000
H175        H  0.81559576  0.35013408  0.44464585     0.21000
H176        H  0.72279042  0.40771000  0.55481609     0.19400
H177        H  0.64082378  0.36119076  0.54821259     0.19300
H178        H  0.89779452  0.39627296  0.45144506     0.15200
C179        C  0.79851270  0.10044392  0.51120032     0.30600
C180        C  0.74919083  0.11051451  0.52977798    -0.35700
C181        C  0.72449564  0.13520723  0.51320572     0.16600
C182        C  0.74665230  0.14907135  0.48054447     0.22400
C183        C  0.79603702  0.13897797  0.46192364    -0.33800
C184        C  0.82091439  0.11433252  0.47862619     0.16500
O185        O  0.82839220  0.07768764  0.52174300    -0.25800
C186        C  0.87081390  0.07716408  0.49584707     0.06300
C187        C  0.86830378  0.09936484  0.46822915    -0.30700
O188        O  0.71651302  0.17181689  0.47009045    -0.22500
C189        C  0.67447936  0.17244080  0.49637343    -0.02500
C190        C  0.67736052  0.15019538  0.52389632    -0.17000
H191        H  0.73134236  0.09985444  0.55539084     0.21000
H192        H  0.81387810  0.14962573  0.43630013     0.19400
H193        H  0.89702795  0.10361641  0.44394934     0.19300
H194        H  0.64886441  0.14576443  0.54825328     0.15200
C195        C  0.31510807  0.13282107  0.50428368     0.30600
C196        C  0.29607970  0.10649446  0.52011116    -0.35700
C197        C  0.24345414  0.09674972  0.50668329     0.16600
C198        C  0.21160300  0.11186318  0.47962580     0.22400
C199        C  0.23077077  0.13809329  0.46364876    -0.33800
C200        C  0.28342864  0.14781051  0.47700309     0.16500
O201        O  0.36245664  0.14629727  0.51331287    -0.25800
C202        C  0.36112049  0.17022656  0.49147043     0.06300
C203        C  0.31301406  0.17222524  0.46820534    -0.30700
O204        O  0.16349867  0.09885495  0.47141080    -0.22500
C205        C  0.16466899  0.07497440  0.49331820    -0.02500
C206        C  0.21338386  0.07258735  0.51591554    -0.17000
H207        H  0.32042900  0.09453502  0.54157042     0.21000
H208        H  0.20620449  0.15016911  0.44243753     0.19400
H209        H  0.30113777  0.18944461  0.44827279     0.19300
H210        H  0.22480337  0.05547334  0.53614595     0.15200
C211        C  0.25427588  0.35174464  0.02297297     0.30600
C212        C  0.21047639  0.36382449  0.04604959    -0.35700
C213        C  0.17936760  0.38611937  0.02826844     0.16600
C214        C  0.19031757  0.39564000  0.99029089     0.22400
C215        C  0.23422159  0.38371953  0.96736031    -0.33800
C216        C  0.26562807  0.36168424  0.98525757     0.16500
O217        O  0.28877282  0.33070931  0.03358929    -0.25800
C218        C  0.32293278  0.32735328  0.00236782     0.06300
C219        C  0.31056360  0.34613597  0.97151304    -0.30700
O220        O  0.15656052  0.41686348  0.97961384    -0.22500
C221        C  0.12344395  0.42113428  0.01113217    -0.02500
C222        C  0.13595030  0.40273275  0.04245325    -0.17000
H223        H  0.20152522  0.35649151  0.07584414     0.21000
H224        H  0.24354115  0.39127820  0.93772692     0.19400
H225        H  0.33134337  0.34784872  0.94295529     0.19300
H226        H  0.11649659  0.40207832  0.07156116     0.15200
C227        C  0.67836237  0.36898764  0.99320314     0.30600
C228        C  0.69189571  0.39816930  0.00088823    -0.35700
C229        C  0.74859990  0.40576669  0.99566633     0.16600
C230        C  0.78907063  0.38618408  0.98311252     0.22400
C231        C  0.77572110  0.35692824  0.97588184    -0.33800
C232        C  0.71922922  0.34919398  0.98179532     0.16500
O233        O  0.62822146  0.35698999  0.99699729    -0.25800
C234        C  0.63738959  0.32908825  0.98854093     0.06300
C235        C  0.69318991  0.32293997  0.97906017    -0.30700
O236        O  0.83946715  0.39798558  0.98037976    -0.22500
C237        C  0.83154557  0.42550577  0.99173000    -0.02500
C238        C  0.77565089  0.43143247  0.00180934    -0.17000
H239        H  0.66057102  0.41376479  0.01078598     0.21000
H240        H  0.80733468  0.34120570  0.96688138     0.19400
H241        H  0.71174011  0.30212221  0.97139952     0.19300
H242        H  0.75772811  0.45163223  0.01274245     0.15200
C243        C  0.75675138  0.09273107  0.99488842     0.30600
C244        C  0.69885046  0.09736361  0.00068813    -0.35700
C245        C  0.67954136  0.12572519  0.99425541     0.16600
C246        C  0.71502247  0.14804147  0.98352341     0.22400
C247        C  0.77258144  0.14321199  0.97671781    -0.33800
C248        C  0.79168746  0.11479131  0.98265939     0.16500
O249        O  0.78412130  0.06821710  0.00050829    -0.25800
C250        C  0.83741043  0.07450992  0.99159797     0.06300
C251        C  0.84422257  0.10315218  0.97953418    -0.30700
O252        O  0.68878844  0.17319976  0.98145916    -0.22500
C253        C  0.63562755  0.16682554  0.99016154    -0.02500
C254        C  0.62714520  0.13759531  0.99808951    -0.17000
H255        H  0.67099547  0.08017217  0.01011116     0.21000
H256        H  0.80067325  0.16051956  0.96806125     0.19400
H257        H  0.88227718  0.11393122  0.96994866     0.19300
H258        H  0.58850435  0.12695015  0.00678363     0.15200
C259        C  0.17880541  0.10974667  0.02460879     0.30600
C260        C  0.20241091  0.13409628  0.04374022    -0.35700
C261        C  0.24868872  0.14682617  0.02457276     0.16600
C262        C  0.27041006  0.13617310  0.98919672     0.22400
C263        C  0.24637690  0.11212045  0.96984909    -0.33800
C264        C  0.19989909  0.09959939  0.98881548     0.16500
O265        O  0.13605124  0.09410835  0.03748855    -0.25800
C266        C  0.12948847  0.07372952  0.00947484     0.06300
C267        C  0.16764852  0.07645067  0.97821424    -0.30700
O268        O  0.31447125  0.15095808  0.97688672    -0.22500
C269        C  0.32095654  0.17155202  0.00451805    -0.02500
C270        C  0.28112506  0.17011196  0.03490789    -0.17000
H271        H  0.18605695  0.14242384  0.07168990     0.21000
H272        H  0.26293773  0.10367358  0.94202116     0.19400
H273        H  0.17133108  0.06307300  0.95167269     0.19300
H274        H  0.27711107  0.18397845  0.06095131     0.16800
N275        N  0.06718452  0.49790266  0.01157761    -0.35700
N276        N  0.98403569  0.54373095  0.00215483    -0.56300
N277        N  0.89641676  0.49961366  0.99760555    -0.35700
N278        N  0.97958700  0.95387570  0.00374819    -0.56300
C279        C  0.10157263  0.52115966  0.00732100     0.27900
C280        C  0.09920055  0.97362284  0.00790610     0.27900
C281        C  0.87025666  0.52346584  0.98347301     0.27900
C282        C  0.86786847  0.97619628  0.98380807     0.27900
C283        C  0.02836953  0.55964773  0.01484608     0.36500
C284        C  0.93760860  0.56037630  0.00750289     0.36500
C285        C  0.02288415  0.93675734  0.01492177     0.36500
C286        C  0.93219299  0.93783955  0.00717685     0.36500
C287        C  0.15649599  0.51138598  0.00230280    -0.21000
C288        C  0.15494482  0.98159310  0.00247280    -0.21000
C289        C  0.82540437  0.51511649  0.95976211    -0.21000
C290        C  0.82404039  0.98528274  0.95984122    -0.21000
C291        C  0.00992277  0.58662189  0.02826850    -0.22100
C292        C  0.95241438  0.58683173  0.02442686    -0.22100
C293        C  0.00283718  0.90960915  0.02528462    -0.22100
C294        C  0.94543105  0.91045908  0.02108734    -0.22100
C295        C  0.08526922  0.55082295  0.01116171    -0.17400
C296        C  0.08037365  0.94457895  0.01233951    -0.17400
C297        C  0.87829700  0.94707661  0.99466792    -0.17400
C298        C  0.88323488  0.55242787  0.99424576    -0.17400
H299        H  0.19455921  0.52408575  0.00030724     0.15500
H300        H  0.19139559  0.96755921  0.00026088     0.15500
H301        H  0.79649061  0.52905286  0.94409849     0.15500
H302        H  0.79397619  0.97185408  0.94410569     0.15500
H303        H  0.03469044  0.60435000  0.04005145     0.13800
H304        H  0.92505643  0.60456925  0.03321479     0.13800
H305        H  0.02665549  0.89092026  0.03468269     0.13800
H306        H  0.91722818  0.89267066  0.02725252     0.13800
H307        H  0.02529415  0.49857408  0.02028749     0.27000
H308        H  0.92725329  0.49948442  0.01951071     0.27000
N309        N  0.10132662  0.50045042  0.49518489    -0.35700
N310        N  0.01666480  0.54576662  0.49339536    -0.56300
N311        N  0.92897416  0.50147921  0.49991928    -0.35700
N312        N  0.01401189  0.95608423  0.49500479    -0.56300
C313        C  0.13281215  0.52372953  0.48514964     0.27900
C314        C  0.13123985  0.97646287  0.48494434     0.27900
C315        C  0.89764499  0.52518250  0.49156800     0.27900
C316        C  0.89629343  0.97788854  0.49318108     0.27900
C317        C  0.06275329  0.56241143  0.49954619     0.36500
C318        C  0.97159393  0.56295534  0.50085817     0.36500
C319        C  0.05964820  0.93921565  0.50129531     0.36500
C320        C  0.96863742  0.93980142  0.50421492     0.36500
C321        C  0.18300557  0.51442703  0.46809640    -0.21000
C322        C  0.18201875  0.98459794  0.46796364    -0.21000
C323        C  0.84431334  0.51655378  0.47971381    -0.21000
C324        C  0.84346567  0.98672363  0.48072756    -0.21000
C325        C  0.04689074  0.59027517  0.51086946    -0.22100
C326        C  0.98911118  0.59063806  0.51161257    -0.22100
C327        C  0.04318974  0.91215617  0.51468219    -0.22100
C328        C  0.98549775  0.91250526  0.51642850    -0.22100
C329        C  0.11873286  0.55307982  0.49302306    -0.17400
C330        C  0.11562761  0.94752085  0.49295814    -0.17400
C331        C  0.91218786  0.94869398  0.49941528    -0.17400
C332        C  0.91488674  0.55440380  0.49619246    -0.17400
H333        H  0.21694502  0.52774051  0.45696268     0.15500
H334        H  0.21513391  0.97050261  0.45681258     0.15500
H335        H  0.80951304  0.53031293  0.47120849     0.15500
H336        H  0.80793611  0.97312298  0.47308293     0.15500
H337        H  0.07399686  0.60847483  0.51781429     0.13800
H338        H  0.96301902  0.60916699  0.51930260     0.13800
H339        H  0.06980080  0.89401577  0.52242922     0.13800
H340        H  0.95905398  0.89469238  0.52569694     0.13800
H341        H  0.06489760  0.50090266  0.51241266     0.27000
H342        H  0.96826478  0.50154211  0.51332938     0.27000
O343        O  0.36749480  0.71434222  0.02696338    -0.77600
C344        C  0.49441225  0.74915214  0.10760357     0.83400
O345        O  0.40566622  0.80728681  0.97343598    -0.78700
O346        O  0.60275409  0.78435102  0.01145636    -0.80200
O347        O  0.54493405  0.68479221  0.97500656    -0.80000
O348        O  0.40436509  0.68962061  0.97579028    -0.78600
Zn349      Zn  0.41793002  0.74959670  0.03458185     1.55700
O350        O  0.60232693  0.71256459  0.01139145    -0.80000
Cd351      Cd  0.47742873  0.71227136  0.96396342     1.59700
Cd352      Cd  0.47846350  0.78351823  0.96261399     1.59600
O353        O  0.47996958  0.72225440  0.90397722    -0.80000
O354        O  0.48116436  0.74854982  0.99737177    -1.90500
Cd355      Cd  0.55452585  0.74866334  0.02635471     1.59900
O356        O  0.48069474  0.77076646  0.90333022    -0.80000
O357        O  0.54007765  0.74884978  0.08749046    -0.78600
C358        C  0.36856870  0.80564384  0.00081237     0.83900
C359        C  0.36660848  0.69303681  0.00241814     0.83600
O360        O  0.44628268  0.74952249  0.09100748    -0.77600
C361        C  0.59170265  0.68914749  0.99244755     0.84400
O362        O  0.36962949  0.78563365  0.02668404    -0.77700
C363        C  0.48146058  0.74622628  0.88538768     0.84500
C364        C  0.59330047  0.80689704  0.99094520     0.84800
O365        O  0.54725068  0.81066403  0.97238431    -0.80100
O366        O  0.39902739  0.78675334  0.47521373    -0.77600
C367        C  0.51464270  0.75295892  0.38505952     0.83400
O368        O  0.44688047  0.68902458  0.51655299    -0.78700
O369        O  0.63340983  0.71543242  0.47163838    -0.80200
O370        O  0.58578611  0.81121486  0.52326118    -0.80000
O371        O  0.44540118  0.81235395  0.52110292    -0.78600
Zn372      Zn  0.44731277  0.75141624  0.46296600     1.55700
O373        O  0.63190996  0.78809341  0.47437679    -0.80000
Cd374      Cd  0.51451564  0.78631910  0.53198368     1.59700
Cd375      Cd  0.51513949  0.71551300  0.52963863     1.59600
O376        O  0.51135437  0.77453017  0.59110981    -0.80000
O377        O  0.51430323  0.75124095  0.49618607    -1.90500
Cd378      Cd  0.58356427  0.75175470  0.46196134     1.59900
O379        O  0.51071423  0.72606933  0.58962450    -0.80000
O380        O  0.56226526  0.75272523  0.40234814    -0.78600
C381        C  0.40531427  0.69262733  0.49330328     0.83900
C382        C  0.40360550  0.80894208  0.49794379     0.83600
O383        O  0.46850872  0.75259440  0.40452425    -0.77600
C384        C  0.62723852  0.80902619  0.49926264     0.84400
O385        O  0.40061683  0.71520764  0.47195414    -0.77700
C386        C  0.50965187  0.75015004  0.60863121     0.84500
C387        C  0.62964521  0.69448237  0.49593395     0.84800
O388        O  0.58826802  0.69195443  0.51988491    -0.80100
C389        C  0.49773495  0.73422964  0.70997684     0.30600
C390        C  0.49220166  0.71658361  0.74352779    -0.35700
C391        C  0.48965737  0.73117501  0.78034520     0.16600
C392        C  0.49222404  0.76104077  0.78381826     0.22400
C393        C  0.49771225  0.77863894  0.75033317    -0.33800
C394        C  0.50037128  0.76407945  0.71361393     0.16500
O395        O  0.50097987  0.72528462  0.67265397    -0.25800
C396        C  0.50575978  0.74974813  0.65221178     0.06300
C397        C  0.50563085  0.77454483  0.67617315    -0.30700
O398        O  0.48931952  0.77016713  0.82099948    -0.22500
C399        C  0.48484556  0.74587692  0.84175533    -0.02500
C400        C  0.48488973  0.72089399  0.81803756    -0.17000
H401        H  0.49014575  0.69315588  0.74110104     0.21000
H402        H  0.49988282  0.80206416  0.75276030     0.19400
H403        H  0.50876932  0.79699504  0.66725394     0.19300
H404        H  0.48208419  0.69849996  0.82725325     0.15200
C405        C  0.48050330  0.75209854  0.28370290     0.30600
C406        C  0.44494371  0.75103111  0.25054537    -0.35700
C407        C  0.47169729  0.75013549  0.21331690     0.16600
C408        C  0.52947643  0.75026460  0.20890376     0.22400
C409        C  0.56506108  0.75128963  0.24209181    -0.33800
C410        C  0.53829286  0.75223386  0.27935378     0.16500
O411        O  0.46449259  0.75271885  0.32128837    -0.25800
C412        C  0.51264916  0.75324991  0.34133973     0.06300
C413        C  0.55993948  0.75307034  0.31676483    -0.30700
O414        O  0.54537220  0.74968318  0.17125678    -0.22500
C415        C  0.49710003  0.74921565  0.15131639    -0.02500
C416        C  0.44993682  0.74937563  0.17599315    -0.17000
H417        H  0.39957762  0.75091476  0.25356015     0.21000
H418        H  0.61042479  0.75139620  0.23907712     0.19400
H419        H  0.60381902  0.75313553  0.32527216     0.19300
H420        H  0.40601027  0.74925626  0.16759667     0.15200
C421        C  0.23691745  0.90482494  0.50550842     0.30600
C422        C  0.28982771  0.89767973  0.52096873    -0.35700
C423        C  0.31215421  0.87082777  0.50868378     0.16600
C424        C  0.28454824  0.85239398  0.48270304     0.22400
C425        C  0.23172463  0.85960326  0.46712339    -0.33800
C426        C  0.20918134  0.88634185  0.47967361     0.16500
O427        O  0.20790947  0.92859791  0.51351726    -0.25800
C428        C  0.16072279  0.92521312  0.49283930     0.06300
C429        C  0.15934377  0.89939171  0.47097752    -0.30700
O430        O  0.31297726  0.82828856  0.47544916    -0.22500
C431        C  0.35931402  0.83125556  0.49716311    -0.02500
C432        C  0.36110254  0.85731572  0.51847271    -0.17000
H433        H  0.31178226  0.91193369  0.54143084     0.21000
H434        H  0.20953366  0.84524419  0.44693232     0.19400
H435        H  0.12641225  0.89148494  0.45157126     0.19300
H436        H  0.39366265  0.86510731  0.53828096     0.15200
C437        C  0.74458977  0.85371355  0.48553209     0.30600
C438        C  0.79554188  0.86247429  0.46833728    -0.35700
C439        C  0.81892741  0.88811096  0.48374830     0.16600
C440        C  0.79381917  0.90416772  0.51386059     0.22400
C441        C  0.74283827  0.89537603  0.53111395    -0.33800
C442        C  0.71953891  0.86964103  0.51579647     0.16500
O443        O  0.71553765  0.83038623  0.47574698    -0.25800
C444        C  0.67130271  0.83133128  0.50007172     0.06300
C445        C  0.67152826  0.85527705  0.52567285    -0.30700
O446        O  0.82296770  0.92754265  0.52346423    -0.22500
C447        C  0.86754050  0.92624754  0.49941749    -0.02500
C448        C  0.86711778  0.90224766  0.47396728    -0.17000
H449        H  0.81559479  0.85013421  0.44464358     0.21000
H450        H  0.72279147  0.90771020  0.55481461     0.19400
H451        H  0.64082459  0.86119104  0.54821181     0.19300
H452        H  0.89779400  0.89627295  0.45144228     0.15200
C453        C  0.79851306  0.60044432  0.51120179     0.30600
C454        C  0.74919109  0.61051495  0.52977926    -0.35700
C455        C  0.72449615  0.63520772  0.51320696     0.16600
C456        C  0.74665316  0.64907188  0.48054586     0.22400
C457        C  0.79603805  0.63897848  0.46192524    -0.33800
C458        C  0.82091514  0.61433295  0.47862781     0.16500
O459        O  0.82839224  0.57768793  0.52174447    -0.25800
C460        C  0.87081414  0.57716430  0.49584870     0.06300
C461        C  0.86830447  0.59936516  0.46823089    -0.30700
O462        O  0.71651389  0.67181738  0.47009167    -0.22500
C463        C  0.67447989  0.67244124  0.49637439    -0.02500
C464        C  0.67736085  0.65019582  0.52389730    -0.17000
H465        H  0.73134228  0.59985484  0.55539197     0.21000
H466        H  0.81387938  0.64962624  0.43630183     0.19400
H467        H  0.89702888  0.60361672  0.44395122     0.19300
H468        H  0.64886443  0.64576481  0.54825405     0.15200
C469        C  0.31510796  0.63282137  0.50428444     0.30600
C470        C  0.29607999  0.60649465  0.52011183    -0.35700
C471        C  0.24345437  0.59674983  0.50668421     0.16600
C472        C  0.21160276  0.61186332  0.47962703     0.22400
C473        C  0.23077011  0.63809356  0.46365008    -0.33800
C474        C  0.28342809  0.64781085  0.47700416     0.16500
O475        O  0.36245659  0.64629759  0.51331340    -0.25800
C476        C  0.36112008  0.67022695  0.49147111     0.06300
C477        C  0.31301330  0.67222565  0.46820635    -0.30700
O478        O  0.16349841  0.59885502  0.47141227    -0.22500
C479        C  0.16466920  0.57497437  0.49331949    -0.02500
C480        C  0.21338440  0.57258736  0.51591648    -0.17000
H481        H  0.32042967  0.59453518  0.54157085     0.21000
H482        H  0.20620346  0.65016940  0.44243909     0.19400
H483        H  0.30113670  0.68944506  0.44827396     0.19300
H484        H  0.22480430  0.55547332  0.53614675     0.15200
C485        C  0.25427615  0.85174460  0.02297308     0.30600
C486        C  0.21047655  0.86382432  0.04604970    -0.35700
C487        C  0.17936767  0.88611918  0.02826859     0.16600
C488        C  0.19031764  0.89563990  0.99029109     0.22400
C489        C  0.23422184  0.88371958  0.96736053    -0.33800
C490        C  0.26562842  0.86168431  0.98525775     0.16500
O491        O  0.28877309  0.83070926  0.03358935    -0.25800
C492        C  0.32293314  0.82735333  0.00236793     0.06300
C493        C  0.31056404  0.84613610  0.97151322    -0.30700
O494        O  0.15656046  0.91686335  0.97961410    -0.22500
C495        C  0.12344383  0.92113402  0.01113244    -0.02500
C496        C  0.13595026  0.90273244  0.04245344    -0.17000
H497        H  0.20152534  0.85649125  0.07584420     0.21000
H498        H  0.24354144  0.89127833  0.93772719     0.19400
H499        H  0.33134388  0.84784894  0.94295550     0.19300
H500        H  0.11649659  0.90207795  0.07156136     0.15200
C501        C  0.67836244  0.86898756  0.99320349     0.30600
C502        C  0.69189558  0.89816928  0.00088832    -0.35700
C503        C  0.74859985  0.90576664  0.99566685     0.16600
C504        C  0.78907081  0.88618395  0.98311366     0.22400
C505        C  0.77572149  0.85692806  0.97588330    -0.33800
C506        C  0.71922953  0.84919383  0.98179637     0.16500
O507        O  0.62822147  0.85698994  0.99699729    -0.25800
C508        C  0.63738982  0.82908815  0.98854144     0.06300
C509        C  0.69319032  0.82293980  0.97906135    -0.30700
O510        O  0.83946733  0.89798545  0.98038111    -0.22500
C511        C  0.83154554  0.92550572  0.99173091    -0.02500
C512        C  0.77565069  0.93143247  0.00180975    -0.17000
H513        H  0.66057068  0.91376483  0.01078553     0.21000
H514        H  0.80733526  0.84120546  0.96688337     0.19400
H515        H  0.71174068  0.80212199  0.97140118     0.19300
H516        H  0.75772770  0.95163229  0.01274245     0.15200
C517        C  0.75675107  0.59273108  0.99488757     0.30600
C518        C  0.69885023  0.59736363  0.00068764    -0.35700
C519        C  0.67954107  0.62572521  0.99425506     0.16600
C520        C  0.71502207  0.64804148  0.98352281     0.22400
C521        C  0.77258092  0.64321199  0.97671680    -0.33800
C522        C  0.79168699  0.61479130  0.98265827     0.16500
O523        O  0.78412109  0.56821714  0.00050742    -0.25800
C524        C  0.83741012  0.57450997  0.99159681     0.06300
C525        C  0.84422207  0.60315219  0.97953280    -0.30700
O526        O  0.68878804  0.67319977  0.98145873    -0.22500
C527        C  0.63562727  0.66682556  0.99016147    -0.02500
C528        C  0.62714498  0.63759534  0.99808950    -0.17000
H529        H  0.67099536  0.58017220  0.01011090     0.21000
H530        H  0.80067263  0.66051955  0.96806006     0.19400
H531        H  0.88227656  0.61393123  0.96994705     0.19300
H532        H  0.58850421  0.62695019  0.00678383     0.15200
C533        C  0.17880545  0.60974676  0.02460758     0.30600
C534        C  0.20241118  0.63409621  0.04373925    -0.35700
C535        C  0.24868877  0.64682625  0.02457175     0.16600
C536        C  0.27040970  0.63617349  0.98919541     0.22400
C537        C  0.24637634  0.61212098  0.96984755    -0.33800
C538        C  0.19989875  0.59959975  0.98881402     0.16500
O539        O  0.13605141  0.59410836  0.03748734    -0.25800
C540        C  0.12948835  0.57372974  0.00947339     0.06300
C541        C  0.16764812  0.57645107  0.97821266    -0.30700
O542        O  0.31447081  0.65095854  0.97688545    -0.22500
C543        C  0.32095646  0.67155222  0.00451711    -0.02500
C544        C  0.28112528  0.67011190  0.03490712    -0.17000
H545        H  0.18605755  0.64242353  0.07168917     0.21000
H546        H  0.26293686  0.60367434  0.94201941     0.19400
H547        H  0.17133045  0.56307355  0.95167096     0.19300
H548        H  0.27711165  0.68397813  0.06095084     0.16800
loop_ 
_geom_bond_atom_site_label_1 
_geom_bond_atom_site_label_2 
_geom_bond_distance 
_geom_bond_site_symmetry_2 
_ccdc_geom_bond_type 
N1           H33   1.037       .  S
N1            C5   1.357   1_565  A
N1          C280   1.355       .  A
N2            C9   1.352   1_655  A
N2           C10   1.352       .  A
N3           H34   1.042   1_556  S
N3            C7   1.353   1_565  A
N3          C282   1.354       .  A
N4           C11   1.352   1_655  A
N4           C12   1.353       .  A
C5           C13   1.389       .  A
C5           C21   1.424       .  A
C6          N275   1.355       .  A
C6           C22   1.420       .  A
C6           C14   1.387       .  A
C7           C15   1.387       .  A
C7           C24   1.413       .  A
C8          N277   1.354       .  A
C8           C23   1.416       .  A
C8           C16   1.387       .  A
C9           C21   1.416       .  A
C9           C17   1.387       .  A
C10          C24   1.416   1_554  A
C10          C18   1.386       .  A
C11          C19   1.387       .  A
C11          C22   1.416       .  A
C12          C20   1.386       .  A
C12          C23   1.416   1_554  A
C13         C288   1.373   1_545  A
C13          H25   1.080       .  S
C14         C287   1.373       .  A
C14          H26   1.082       .  S
C15         C290   1.374   1_545  A
C15          H27   1.082       .  S
C16         C289   1.374       .  A
C16          H28   1.082       .  S
C17          C18   1.373   1_455  A
C17          H29   1.080       .  S
C18          H30   1.081       .  S
C19          C20   1.372   1_455  A
C19          H31   1.080       .  S
C20          H32   1.081       .  S
C21         C266   1.492       .  S
C22         C221   1.486       .  S
C23         C237   1.494       .  S
C24         C250   1.492       .  S
N35          H67   1.040       .  S
N35          C39   1.354       .  A
N35         C314   1.353   1_545  A
N36          C43   1.353       .  A
N36          C44   1.352   1_455  A
N37          H68   1.039       .  S
N37          C41   1.353       .  A
N37         C316   1.354   1_545  A
N38          C45   1.352       .  A
N38          C46   1.351   1_455  A
C39          C47   1.386       .  A
C39          C55   1.414       .  A
C40         N309   1.353       .  A
C40          C56   1.413       .  A
C40          C48   1.387       .  A
C41          C49   1.388       .  A
C41          C58   1.415       .  A
C42         N311   1.354       .  A
C42          C57   1.414       .  A
C42          C50   1.387       .  A
C43          C55   1.413       .  A
C43          C51   1.386       .  A
C44          C58   1.413       .  A
C44          C52   1.386       .  A
C45          C53   1.386       .  A
C45          C56   1.413       .  A
C46          C54   1.386       .  A
C46          C57   1.412       .  A
C47         C322   1.374   1_545  A
C47          H59   1.082       .  S
C48         C321   1.374       .  A
C48          H60   1.082       .  S
C49         C324   1.375   1_545  A
C49          H61   1.082       .  S
C50         C323   1.375       .  A
C50          H62   1.082       .  S
C51          C52   1.373   1_455  A
C51          H63   1.082       .  S
C52          H64   1.082       .  S
C53          C54   1.372   1_455  A
C53          H65   1.082       .  S
C54          H66   1.082       .  S
C55         C205   1.487       .  S
C56         C154   1.483       .  S
C57         C173   1.483       .  S
C58         C186   1.481       .  S
O69          C85   1.276       .  A
O69         Zn75   2.034       .  S
C70         C141   1.473       .  S
C70          O86   1.275       .  A
C70          O83   1.276       .  A
O71          C84   1.275   1_556  A
O71         Cd78   2.074       .  S
O72          C90   1.274   1_554  A
O72         Cd81   2.070       .  S
O73          C87   1.274       .  A
O73         Cd77   2.079       .  S
O74          C85   1.274   1_556  A
O74         Cd77   2.067       .  S
Zn75         O86   2.018       .  S
Zn75         O88   2.037       .  S
Zn75         O80   1.952   1_554  S
O76          C87   1.273   1_554  A
O76         Cd81   2.068       .  S
Cd77         O79   2.077       .  S
Cd77         O80   2.006       .  S
Cd78         O82   2.074       .  S
Cd78         O91   2.085       .  S
Cd78         O80   2.002       .  S
O79          C89   1.276       .  A
O80         Cd81   2.001   1_556  S
Cd81         O83   2.085       .  S
O82          C89   1.275       .  A
C84         C218   1.474       .  S
C84          O88   1.275       .  A
C85         C269   1.472       .  S
C87         C253   1.465       .  S
C89         C125   1.470       .  S
C90         C234   1.468       .  S
C90          O91   1.275       .  A
O92         C108   1.275       .  A
O92         Zn98   2.027       .  S
C93         C138   1.473       .  S
C93         O109   1.275       .  A
C93         O106   1.275       .  A
O94         C107   1.275       .  A
O94        Cd101   2.077       .  S
O95         C113   1.275       .  A
O95        Cd104   2.077       .  S
O96         C110   1.274       .  A
O96        Cd100   2.069       .  S
O97         C108   1.274       .  A
O97        Cd100   2.068       .  S
Zn98        O109   2.030       .  S
Zn98        O111   2.029       .  S
Zn98        O103   1.949       .  S
O99         C110   1.274       .  A
O99        Cd104   2.071       .  S
Cd100       O102   2.070       .  S
Cd100       O103   2.004       .  S
Cd101       O105   2.074       .  S
Cd101       O114   2.070       .  S
Cd101       O103   2.005       .  S
O102        C112   1.275       .  A
O103       Cd104   2.005       .  S
Cd104       O106   2.072       .  S
O105        C112   1.274       .  A
C107        C202   1.474       .  S
C107        O111   1.276       .  A
C108        C157   1.470       .  S
C110        C170   1.468       .  S
C112        C122   1.470       .  S
C113        C189   1.470       .  S
C113        O114   1.275       .  A
C115        C120   1.380       .  A
C115        C116   1.405       .  A
C115        O121   1.320       .  A
C116        C117   1.404       .  A
C116        H127   1.082       .  S
C117        C126   1.364       .  A
C117        C118   1.381       .  A
C118        C119   1.402       .  A
C118        O124   1.317       .  A
C119        C120   1.400       .  A
C119        H128   1.082       .  S
C120        C123   1.360       .  A
O121        C122   1.332       .  A
C122        C123   1.391       .  A
C123        H129   1.083       .  S
O124        C125   1.330       .  A
C125        C126   1.393       .  A
C126        H130   1.082       .  S
C131        C136   1.380       .  A
C131        C132   1.403       .  A
C131        O137   1.319       .  A
C132        C133   1.403       .  A
C132        H143   1.082       .  S
C133        C142   1.361       .  A
C133        C134   1.380       .  A
C134        C135   1.404       .  A
C134        O140   1.321       .  A
C135        C136   1.404       .  A
C135        H144   1.082       .  S
C136        C139   1.362       .  A
O137        C138   1.331       .  A
C138        C139   1.392       .  A
C139        H145   1.082       .  S
O140        C141   1.332       .  A
C141        C142   1.392       .  A
C142        H146   1.083       .  S
C147        C152   1.380       .  A
C147        C148   1.403       .  A
C147        O153   1.317       .  A
C148        C149   1.402       .  A
C148        H159   1.082       .  S
C149        C158   1.362       .  A
C149        C150   1.380       .  A
C150        C151   1.403       .  A
C150        O156   1.318       .  A
C151        C152   1.402       .  A
C151        H160   1.082       .  S
C152        C155   1.361       .  A
O153        C154   1.331       .  A
C154        C155   1.392       .  A
C155        H161   1.082       .  S
O156        C157   1.331       .  A
C157        C158   1.392       .  A
C158        H162   1.083       .  S
C163        C168   1.381       .  A
C163        C164   1.402       .  A
C163        O169   1.317       .  A
C164        C165   1.401       .  A
C164        H175   1.082       .  S
C165        C174   1.359       .  A
C165        C166   1.381       .  A
C166        C167   1.403       .  A
C166        O172   1.319       .  A
C167        C168   1.403       .  A
C167        H176   1.082       .  S
C168        C171   1.362       .  A
O169        C170   1.330       .  A
C170        C171   1.392       .  A
C171        H177   1.082       .  S
O172        C173   1.331       .  A
C173        C174   1.391       .  A
C174        H178   1.082       .  S
C179        C184   1.381       .  A
C179        C180   1.402       .  A
C179        O185   1.318       .  A
C180        C181   1.401       .  A
C180        H191   1.082       .  S
C181        C190   1.360       .  A
C181        C182   1.380       .  A
C182        C183   1.404       .  A
C182        O188   1.320       .  A
C183        C184   1.403       .  A
C183        H192   1.082       .  S
C184        C187   1.362       .  A
O185        C186   1.330       .  A
C186        C187   1.391       .  A
C187        H193   1.082       .  S
O188        C189   1.331       .  A
C189        C190   1.391       .  A
C190        H194   1.083       .  S
C195        C200   1.380       .  A
C195        C196   1.405       .  A
C195        O201   1.321       .  A
C196        C197   1.404       .  A
C196        H207   1.082       .  S
C197        C206   1.362       .  A
C197        C198   1.380       .  A
C198        C199   1.404       .  A
C198        O204   1.320       .  A
C199        C200   1.404       .  A
C199        H208   1.082       .  S
C200        C203   1.362       .  A
O201        C202   1.332       .  A
C202        C203   1.392       .  A
C203        H209   1.082       .  S
O204        C205   1.331       .  A
C205        C206   1.393       .  A
C206        H210   1.082       .  S
C211        C216   1.380   1_554  A
C211        C212   1.406       .  A
C211        O217   1.321       .  A
C212        C213   1.405       .  A
C212        H223   1.082       .  S
C213        C222   1.365       .  A
C213        C214   1.380   1_554  A
C214        C215   1.402       .  A
C214        O220   1.317       .  A
C215        C216   1.402       .  A
C215        H224   1.082       .  S
C216        C219   1.361       .  A
O217        C218   1.333       .  A
C218        C219   1.391   1_554  A
C219        H225   1.082       .  S
O220        C221   1.331   1_556  A
C221        C222   1.393       .  A
C222        H226   1.082       .  S
C227        C232   1.381       .  A
C227        C228   1.404   1_556  A
C227        O233   1.321       .  A
C228        C229   1.404   1_554  A
C228        H239   1.082       .  S
C229        C238   1.361   1_556  A
C229        C230   1.379       .  A
C230        C231   1.404       .  A
C230        O236   1.319       .  A
C231        C232   1.403       .  A
C231        H240   1.082       .  S
C232        C235   1.362       .  A
O233        C234   1.330       .  A
C234        C235   1.390       .  A
C235        H241   1.082       .  S
O236        C237   1.332       .  A
C237        C238   1.395   1_556  A
C238        H242   1.082       .  S
C243        C248   1.379       .  A
C243        C244   1.404   1_556  A
C243        O249   1.318   1_556  A
C244        C245   1.403   1_554  A
C244        H255   1.082       .  S
C245        C254   1.364       .  A
C245        C246   1.381       .  A
C246        C247   1.403       .  A
C246        O252   1.317       .  A
C247        C248   1.401       .  A
C247        H256   1.082       .  S
C248        C251   1.361       .  A
O249        C250   1.333   1_554  A
C250        C251   1.394       .  A
C251        H257   1.082       .  S
O252        C253   1.330       .  A
C253        C254   1.390       .  A
C254        H258   1.082   1_556  S
C259        C264   1.379   1_554  A
C259        C260   1.406       .  A
C259        O265   1.321       .  A
C260        C261   1.405       .  A
C260        H271   1.082       .  S
C261        C270   1.365       .  A
C261        C262   1.380   1_554  A
C262        C263   1.402       .  A
C262        O268   1.318       .  A
C263        C264   1.402       .  A
C263        H272   1.082       .  S
C264        C267   1.359       .  A
O265        C266   1.333       .  A
C266        C267   1.393   1_554  A
C267        H273   1.083       .  S
O268        C269   1.330   1_556  A
C269        C270   1.393       .  A
C270        H274   1.082       .  S
N275        H307   1.037       .  S
N275        C279   1.357       .  A
N276        C283   1.352   1_655  A
N276        C284   1.352       .  A
N277        H308   1.042   1_556  S
N277        C281   1.353       .  A
N278        C285   1.352   1_655  A
N278        C286   1.353       .  A
C279        C287   1.389       .  A
C279        C295   1.424       .  A
C280        C296   1.420       .  A
C280        C288   1.387       .  A
C281        C289   1.387       .  A
C281        C298   1.413       .  A
C282        C297   1.416       .  A
C282        C290   1.387       .  A
C283        C295   1.416       .  A
C283        C291   1.387       .  A
C284        C298   1.416   1_554  A
C284        C292   1.386       .  A
C285        C293   1.387       .  A
C285        C296   1.416       .  A
C286        C294   1.386       .  A
C286        C297   1.416   1_554  A
C287        H299   1.080       .  S
C288        H300   1.082       .  S
C289        H301   1.082       .  S
C290        H302   1.082       .  S
C291        C292   1.373   1_455  A
C291        H303   1.080       .  S
C292        H304   1.081       .  S
C293        C294   1.372   1_455  A
C293        H305   1.080       .  S
C294        H306   1.081       .  S
C295        C540   1.492       .  S
C296        C495   1.486       .  S
C297        C511   1.494       .  S
C298        C524   1.492       .  S
N309        H341   1.040       .  S
N309        C313   1.354       .  A
N310        C317   1.353       .  A
N310        C318   1.352   1_455  A
N311        H342   1.039       .  S
N311        C315   1.353       .  A
N312        C319   1.352       .  A
N312        C320   1.351   1_455  A
C313        C321   1.386       .  A
C313        C329   1.414       .  A
C314        C330   1.413       .  A
C314        C322   1.387       .  A
C315        C323   1.388       .  A
C315        C332   1.415       .  A
C316        C331   1.414       .  A
C316        C324   1.387       .  A
C317        C329   1.413       .  A
C317        C325   1.386       .  A
C318        C332   1.413       .  A
C318        C326   1.386       .  A
C319        C327   1.386       .  A
C319        C330   1.413       .  A
C320        C328   1.386       .  A
C320        C331   1.412       .  A
C321        H333   1.082       .  S
C322        H334   1.082       .  S
C323        H335   1.082       .  S
C324        H336   1.082       .  S
C325        C326   1.373   1_455  A
C325        H337   1.082       .  S
C326        H338   1.082       .  S
C327        C328   1.372   1_455  A
C327        H339   1.082       .  S
C328        H340   1.082       .  S
C329        C479   1.487       .  S
C330        C428   1.483       .  S
C331        C447   1.483       .  S
C332        C460   1.481       .  S
O343        C359   1.276       .  A
O343       Zn349   2.034       .  S
C344        C415   1.473       .  S
C344        O360   1.275       .  A
C344        O357   1.276       .  A
O345        C358   1.275   1_556  A
O345       Cd352   2.074       .  S
O346        C364   1.274   1_554  A
O346       Cd355   2.070       .  S
O347        C361   1.274       .  A
O347       Cd351   2.079       .  S
O348        C359   1.274   1_556  A
O348       Cd351   2.067       .  S
Zn349       O360   2.018       .  S
Zn349       O362   2.037       .  S
Zn349       O354   1.952   1_554  S
O350        C361   1.273   1_554  A
O350       Cd355   2.068       .  S
Cd351       O353   2.077       .  S
Cd351       O354   2.006       .  S
Cd352       O356   2.074       .  S
Cd352       O365   2.085       .  S
Cd352       O354   2.002       .  S
O353        C363   1.276       .  A
O354       Cd355   2.001   1_556  S
Cd355       O357   2.085       .  S
O356        C363   1.275       .  A
C358        C492   1.474       .  S
C358        O362   1.275       .  A
C359        C543   1.472       .  S
C361        C527   1.465       .  S
C363        C399   1.470       .  S
C364        C508   1.468       .  S
C364        O365   1.275       .  A
O366        C382   1.275       .  A
O366       Zn372   2.027       .  S
C367        C412   1.473       .  S
C367        O383   1.275       .  A
C367        O380   1.275       .  A
O368        C381   1.275       .  A
O368       Cd375   2.077       .  S
O369        C387   1.275       .  A
O369       Cd378   2.077       .  S
O370        C384   1.274       .  A
O370       Cd374   2.069       .  S
O371        C382   1.274       .  A
O371       Cd374   2.068       .  S
Zn372       O383   2.030       .  S
Zn372       O385   2.029       .  S
Zn372       O377   1.949       .  S
O373        C384   1.274       .  A
O373       Cd378   2.071       .  S
Cd374       O376   2.070       .  S
Cd374       O377   2.004       .  S
Cd375       O379   2.074       .  S
Cd375       O388   2.070       .  S
Cd375       O377   2.005       .  S
O376        C386   1.275       .  A
O377       Cd378   2.005       .  S
Cd378       O380   2.072       .  S
O379        C386   1.274       .  A
C381        C476   1.474       .  S
C381        O385   1.276       .  A
C382        C431   1.470       .  S
C384        C444   1.468       .  S
C386        C396   1.470       .  S
C387        C463   1.470       .  S
C387        O388   1.275       .  A
C389        C394   1.380       .  A
C389        C390   1.405       .  A
C389        O395   1.320       .  A
C390        C391   1.404       .  A
C390        H401   1.082       .  S
C391        C400   1.364       .  A
C391        C392   1.381       .  A
C392        C393   1.402       .  A
C392        O398   1.317       .  A
C393        C394   1.401       .  A
C393        H402   1.082       .  S
C394        C397   1.360       .  A
O395        C396   1.332       .  A
C396        C397   1.391       .  A
C397        H403   1.083       .  S
O398        C399   1.330       .  A
C399        C400   1.393       .  A
C400        H404   1.082       .  S
C405        C410   1.380       .  A
C405        C406   1.403       .  A
C405        O411   1.319       .  A
C406        C407   1.403       .  A
C406        H417   1.082       .  S
C407        C416   1.361       .  A
C407        C408   1.380       .  A
C408        C409   1.404       .  A
C408        O414   1.321       .  A
C409        C410   1.404       .  A
C409        H418   1.082       .  S
C410        C413   1.362       .  A
O411        C412   1.331       .  A
C412        C413   1.392       .  A
C413        H419   1.082       .  S
O414        C415   1.332       .  A
C415        C416   1.392       .  A
C416        H420   1.083       .  S
C421        C426   1.380       .  A
C421        C422   1.403       .  A
C421        O427   1.317       .  A
C422        C423   1.402       .  A
C422        H433   1.082       .  S
C423        C432   1.362       .  A
C423        C424   1.380       .  A
C424        C425   1.403       .  A
C424        O430   1.318       .  A
C425        C426   1.402       .  A
C425        H434   1.082       .  S
C426        C429   1.361       .  A
O427        C428   1.331       .  A
C428        C429   1.392       .  A
C429        H435   1.082       .  S
O430        C431   1.331       .  A
C431        C432   1.392       .  A
C432        H436   1.083       .  S
C437        C442   1.381       .  A
C437        C438   1.402       .  A
C437        O443   1.317       .  A
C438        C439   1.401       .  A
C438        H449   1.082       .  S
C439        C448   1.359       .  A
C439        C440   1.381       .  A
C440        C441   1.403       .  A
C440        O446   1.319       .  A
C441        C442   1.403       .  A
C441        H450   1.082       .  S
C442        C445   1.362       .  A
O443        C444   1.330       .  A
C444        C445   1.392       .  A
C445        H451   1.082       .  S
O446        C447   1.331       .  A
C447        C448   1.391       .  A
C448        H452   1.082       .  S
C453        C458   1.381       .  A
C453        C454   1.402       .  A
C453        O459   1.318       .  A
C454        C455   1.401       .  A
C454        H465   1.082       .  S
C455        C464   1.360       .  A
C455        C456   1.380       .  A
C456        C457   1.404       .  A
C456        O462   1.320       .  A
C457        C458   1.403       .  A
C457        H466   1.082       .  S
C458        C461   1.362       .  A
O459        C460   1.330       .  A
C460        C461   1.391       .  A
C461        H467   1.082       .  S
O462        C463   1.331       .  A
C463        C464   1.391       .  A
C464        H468   1.083       .  S
C469        C474   1.380       .  A
C469        C470   1.405       .  A
C469        O475   1.321       .  A
C470        C471   1.404       .  A
C470        H481   1.082       .  S
C471        C480   1.362       .  A
C471        C472   1.380       .  A
C472        C473   1.404       .  A
C472        O478   1.320       .  A
C473        C474   1.404       .  A
C473        H482   1.082       .  S
C474        C477   1.362       .  A
O475        C476   1.332       .  A
C476        C477   1.392       .  A
C477        H483   1.082       .  S
O478        C479   1.331       .  A
C479        C480   1.393       .  A
C480        H484   1.082       .  S
C485        C490   1.380   1_554  A
C485        C486   1.406       .  A
C485        O491   1.321       .  A
C486        C487   1.405       .  A
C486        H497   1.082       .  S
C487        C496   1.365       .  A
C487        C488   1.380   1_554  A
C488        C489   1.402       .  A
C488        O494   1.317       .  A
C489        C490   1.402       .  A
C489        H498   1.082       .  S
C490        C493   1.361       .  A
O491        C492   1.333       .  A
C492        C493   1.391   1_554  A
C493        H499   1.082       .  S
O494        C495   1.331   1_556  A
C495        C496   1.393       .  A
C496        H500   1.082       .  S
C501        C506   1.381       .  A
C501        C502   1.404   1_556  A
C501        O507   1.321       .  A
C502        C503   1.404   1_554  A
C502        H513   1.082       .  S
C503        C512   1.361   1_556  A
C503        C504   1.379       .  A
C504        C505   1.404       .  A
C504        O510   1.319       .  A
C505        C506   1.403       .  A
C505        H514   1.082       .  S
C506        C509   1.362       .  A
O507        C508   1.330       .  A
C508        C509   1.390       .  A
C509        H515   1.082       .  S
O510        C511   1.332       .  A
C511        C512   1.395   1_556  A
C512        H516   1.082       .  S
C517        C522   1.379       .  A
C517        C518   1.404   1_556  A
C517        O523   1.318   1_556  A
C518        C519   1.403   1_554  A
C518        H529   1.082       .  S
C519        C528   1.364       .  A
C519        C520   1.381       .  A
C520        C521   1.403       .  A
C520        O526   1.317       .  A
C521        C522   1.401       .  A
C521        H530   1.082       .  S
C522        C525   1.361       .  A
O523        C524   1.333   1_554  A
C524        C525   1.394       .  A
C525        H531   1.082       .  S
O526        C527   1.330       .  A
C527        C528   1.390       .  A
C528        H532   1.082   1_556  S
C533        C538   1.379   1_554  A
C533        C534   1.406       .  A
C533        O539   1.321       .  A
C534        C535   1.405       .  A
C534        H545   1.082       .  S
C535        C544   1.365       .  A
C535        C536   1.380   1_554  A
C536        C537   1.402       .  A
C536        O542   1.318       .  A
C537        C538   1.402       .  A
C537        H546   1.082       .  S
C538        C541   1.359       .  A
O539        C540   1.333       .  A
C540        C541   1.393   1_554  A
C541        H547   1.083       .  S
O542        C543   1.330   1_556  A
C543        C544   1.393       .  A
C544        H548   1.082       .  S
