geometry optimzed in LAMMPS
_audit_creation_date              2020-11-30 
_audit_creation_method            'lammps2cif' 
_symmetry_space_group_name_H-M    'P1' 
_symmetry_Int_Tables_number       1 
_symmetry_cell_setting            triclinic 
loop_ 
_symmetry_equiv_pos_as_xyz 
  x,y,z 
_cell_length_a                    27.99269855 
_cell_length_b                    27.96179152105707 
_cell_length_c                    27.96662785922792 
_cell_angle_alpha                 90.01263408889287 
_cell_angle_beta                  90.01591664642973 
_cell_angle_gamma                 90.00669786961446 
loop_ 
_atom_site_label 
_atom_site_type_symbol 
_atom_site_fract_x 
_atom_site_fract_y 
_atom_site_fract_z 
_atom_site_charge 
O1          O  0.99984678  0.08196517  0.13432773    -0.79600
O2          O  0.00079958  0.07709375  0.86375854    -0.81200
O3          O  0.07921240  0.13535471  0.00183398    -0.78200
O4          O  0.92372642  0.13798046  0.99793084    -0.76600
O5          O  0.86502359  0.08119500  0.99800060    -0.78400
O6          O  0.13691446  0.07752858  0.00138077    -0.79300
O7          O  0.00127461  0.13523396  0.92102596    -0.80600
O8          O  0.00074699  0.13830291  0.07529690    -0.80900
Eu9        Eu  0.00091757  0.09646610  0.99906440     2.39200
O10         O  0.95237216  0.04864978  0.95015547    -0.88400
O11         O  0.04878831  0.04891976  0.04897135    -0.92000
C12         C  0.00036194  0.12580653  0.11955312     1.02700
C13         C  0.00077395  0.12129162  0.87714236     1.02500
C14         C  0.12318157  0.12158125  0.00211045     1.02400
C15         C  0.87946496  0.12510759  0.99779158     1.00300
H16         H  0.07029375  0.06738693  0.93147463     0.30000
O17         O  0.05005414  0.04777389  0.95139281    -1.00800
H18         H  0.93096688  0.07044642  0.06729787     0.30100
O19         O  0.95080310  0.05003188  0.04782615    -1.03300
O20         O  0.00159267  0.92026204  0.86499487    -0.80600
O21         O  0.99678766  0.92437538  0.13817042    -0.80100
O22         O  0.13743307  0.99678591  0.92312297    -0.78500
O23         O  0.86581536  0.00167438  0.91857899    -0.81900
O24         O  0.86241962  0.00103766  0.07666078    -0.79700
O25         O  0.13549541  0.00120023  0.08066320    -0.78400
O26         O  0.07714900  0.86343850  0.00190334    -0.79900
O27         O  0.91908410  0.86569800  0.00252468    -0.81800
O28         O  0.13539611  0.92066929  0.00218179    -0.78600
O29         O  0.86184567  0.92395509  0.00024434    -0.81200
O30         O  0.07995478  0.99716037  0.86492787    -0.77000
O31         O  0.07660111  0.00111607  0.13742713    -0.77000
O32         O  0.91963253  0.00130061  0.13492818    -0.76700
O33         O  0.92440232  0.99916153  0.86182367    -0.80200
O34         O  0.99796575  0.86265193  0.92297639    -0.79600
O35         O  0.99655952  0.86595243  0.08106541    -0.77900
Eu36       Eu  0.00132531  0.99887522  0.90351868     2.39800
Eu37       Eu  0.99875829  0.00187902  0.09711851     2.39600
Eu38       Eu  0.09710576  0.99932443  0.00138746     2.38400
Eu39       Eu  0.90271331  0.00159715  0.99865214     2.39900
Eu40       Eu  0.99863522  0.90319101  0.00136805     2.39800
O41         O  0.95052103  0.95346954  0.04824784    -0.92300
O42         O  0.04864862  0.95038313  0.95307352    -0.91200
C43         C  0.99979527  0.87632127  0.87884951     1.02800
C44         C  0.99623651  0.88011285  0.12504573     1.01600
C45         C  0.12386374  0.99642449  0.87895097     1.01000
C46         C  0.88017529  0.00049085  0.87464423     1.03000
C47         C  0.87569767  0.00083413  0.12089927     1.01900
C48         C  0.12084814  0.00117949  0.12448773     1.00700
C49         C  0.12137265  0.87671361  0.00211577     1.00800
C50         C  0.87512511  0.87975587  0.00173953     1.03400
H51         H  0.06668031  0.93200954  0.07028741     0.30800
O52         O  0.04727187  0.95189672  0.04985084    -1.04500
H53         H  0.93126216  0.93154774  0.93162226     0.32800
O54         O  0.95115098  0.95147293  0.95155014    -1.07000
O55         O  0.00355614  0.42444021  0.36167894    -0.79600
O56         O  0.99752455  0.41822416  0.63432825    -0.81200
O57         O  0.07511965  0.36099151  0.49596208    -0.78200
O58         O  0.91833122  0.36584723  0.50126447    -0.76600
O59         O  0.86203341  0.42513077  0.50040017    -0.78400
O60         O  0.13474502  0.41681266  0.50034103    -0.79300
O61         O  0.99976384  0.36116656  0.57563175    -0.80600
O62         O  0.99896334  0.36574578  0.41849501    -0.80900
Eu63       Eu  0.99801980  0.40272766  0.49838441     2.39200
O64         O  0.95052195  0.45186855  0.54737915    -0.88400
O65         O  0.04770703  0.45073937  0.45101425    -0.92000
C66         C  0.00176042  0.38029297  0.37473334     1.02700
C67         C  0.99868749  0.37432528  0.61984439     1.02500
C68         C  0.11951832  0.37328917  0.49766247     1.02400
C69         C  0.87464389  0.38071804  0.50168576     1.00300
H70         H  0.06694109  0.42835618  0.56782882     0.30000
O71         O  0.04756449  0.44903960  0.54815414    -1.00800
H72         H  0.93015553  0.43343384  0.43009823     0.30100
O73         O  0.95041939  0.45274382  0.45024560    -1.03300
O74         O  0.00248529  0.57641248  0.63773980    -0.80600
O75         O  0.99945435  0.58075827  0.36562099    -0.80100
O76         O  0.13562648  0.49753738  0.57938192    -0.78500
O77         O  0.86290332  0.50205053  0.57719561    -0.81900
O78         O  0.86417881  0.50600074  0.42082800    -0.79700
O79         O  0.13642334  0.49419417  0.42122831    -0.78400
O80         O  0.08429250  0.63178761  0.50297336    -0.79900
O81         O  0.92804511  0.63906437  0.49819480    -0.81800
O82         O  0.14078606  0.57299921  0.50115957    -0.78600
O83         O  0.86833702  0.58310034  0.49952195    -0.81200
O84         O  0.07759519  0.49566383  0.63717683    -0.77000
O85         O  0.07866326  0.49885619  0.36374195    -0.77000
O86         O  0.92224184  0.50072110  0.36337169    -0.76700
O87         O  0.92049344  0.50085941  0.63534886    -0.80200
O88         O  0.00363773  0.63464936  0.58039981    -0.79600
O89         O  0.00488604  0.63728392  0.42451127    -0.77900
Eu90       Eu  0.99976981  0.49814581  0.59717351     2.39800
Eu91       Eu  0.00063728  0.50125417  0.40318514     2.39600
Eu92       Eu  0.09774705  0.49656448  0.50029587     2.38400
Eu93       Eu  0.90358996  0.50257334  0.49943389     2.39900
Eu94       Eu  0.00417212  0.59607993  0.50162086     2.39800
O95         O  0.95383285  0.55041415  0.45225327    -0.92300
O96         O  0.05061392  0.54557586  0.54981001    -0.91200
C97         C  0.00319434  0.62065435  0.62437693     1.02800
C98         C  0.00184366  0.62448514  0.38033680     1.01600
C99         C  0.12151882  0.49662602  0.62329157     1.01000
C100        C  0.87652585  0.50173536  0.62129888     1.03000
C101        C  0.87824618  0.50358032  0.37692875     1.01900
C102        C  0.12265760  0.49566967  0.37714557     1.00700
C103        C  0.12807838  0.61735431  0.50232935     1.00800
C104        C  0.88368490  0.62665303  0.49834736     1.03400
H105        H  0.07176233  0.56705309  0.43228924     0.30800
O106        O  0.05130075  0.54744976  0.45198088    -1.04500
H107        H  0.93379552  0.56941493  0.56901870     0.32800
O108        O  0.95319410  0.54898227  0.54911314    -1.07000
O109        O  0.63507099  0.99754121  0.41851852    -0.79600
O110        O  0.36207273  0.99492319  0.42407001    -0.81200
O111        O  0.49990232  0.91822674  0.36487807    -0.78200
O112        O  0.49237949  0.07445772  0.36096435    -0.76600
O113        O  0.49604901  0.13308059  0.41804425    -0.78400
O114        O  0.50216078  0.86165140  0.42385172    -0.79300
O115        O  0.41888467  0.99475844  0.36538210    -0.80600
O116        O  0.57595131  0.99878390  0.36189023    -0.80900
Eu117      Eu  0.49833582  0.99721537  0.40271641     2.39200
O118        O  0.45005810  0.04529165  0.45133567    -0.88400
O119        O  0.54934358  0.95087059  0.45109056    -0.92000
C120        C  0.62019729  0.99774655  0.37483061     1.02700
C121        C  0.37507459  0.99448537  0.37980356     1.02500
C122        C  0.50095393  0.87446513  0.37947147     1.02400
C123        C  0.49334480  0.11866221  0.37428149     1.00300
H124        H  0.43240675  0.92714507  0.43409866     0.30000
O125        O  0.45217424  0.94809468  0.45307815    -1.00800
H126        H  0.56612518  0.06798649  0.42805631     0.30100
O127        O  0.54713159  0.04803245  0.44884460    -1.03300
O128        O  0.36491669  0.99454455  0.58005126    -0.80600
O129        O  0.63794385  0.00564078  0.57571949    -0.80100
O130        O  0.42677222  0.86021141  0.50804399    -0.78500
O131        O  0.41926496  0.13387936  0.49412916    -0.81900
O132        O  0.57563893  0.13718220  0.49649696    -0.79700
O133        O  0.58310896  0.86550777  0.50157430    -0.78400
O134        O  0.50391554  0.92501605  0.63834558    -0.79900
O135        O  0.50392176  0.08075429  0.63429024    -0.81800
O136        O  0.50523233  0.86599982  0.58195119    -0.78600
O137        O  0.50125479  0.13726244  0.57540045    -0.81200
O138        O  0.36744677  0.91651343  0.50382506    -0.77000
O139        O  0.63955059  0.92444058  0.49991944    -0.77000
O140        O  0.63510253  0.08111857  0.49567511    -0.76700
O141        O  0.36289259  0.07483402  0.49625484    -0.80200
O142        O  0.42357510  0.99775895  0.63675235    -0.79600
O143        O  0.58072832  0.00308726  0.63416862    -0.77900
Eu144      Eu  0.40344334  0.99680413  0.50133162     2.39800
Eu145      Eu  0.59756051  0.00160891  0.49775405     2.39600
Eu146      Eu  0.50334054  0.90238608  0.50196303     2.38400
Eu147      Eu  0.49819813  0.09607610  0.49759042     2.39900
Eu148      Eu  0.50171777  0.00175396  0.59637962     2.39800
O149        O  0.54855393  0.04980676  0.54600123    -0.92300
O150        O  0.45425493  0.95088704  0.54971719    -0.91200
C151        C  0.37931551  0.99494521  0.62390254     1.02800
C152        C  0.62452201  0.00465708  0.61987575     1.01600
C153        C  0.38250003  0.87294375  0.50693614     1.01000
C154        C  0.37555783  0.11921891  0.49361851     1.03000
C155        C  0.62004970  0.12479071  0.49623009     1.01900
C156        C  0.62690138  0.88003626  0.50085032     1.00700
C157        C  0.50498031  0.88067217  0.62575697     1.00800
C158        C  0.50372849  0.12453690  0.61976176     1.03400
H159        H  0.57185111  0.93430543  0.56866946     0.30800
O160        O  0.55118048  0.95323965  0.54855443    -1.04500
H161        H  0.43059874  0.06844265  0.56818839     0.32800
O162        O  0.45065356  0.04849608  0.54844357    -1.07000
O163        O  0.41869293  0.36564514  0.99989390    -0.79600
O164        O  0.42120269  0.63686633  0.99700086    -0.81200
O165        O  0.36175391  0.49728145  0.07590375    -0.78200
O166        O  0.36451969  0.50290828  0.91914111    -0.76600
O167        O  0.42239461  0.50297516  0.86167785    -0.78400
O168        O  0.41914765  0.49806171  0.13432389    -0.79300
O169        O  0.36314601  0.57922202  0.99905841    -0.80600
O170        O  0.36119393  0.42365756  0.99792684    -0.80900
Eu171      Eu  0.40223871  0.50075420  0.99829960     2.39200
O172        O  0.45080358  0.55004945  0.95101771    -0.88400
O173        O  0.44997505  0.45115900  0.04659359    -0.92000
C174        C  0.37465932  0.37961632  0.99948286     1.02700
C175        C  0.37723135  0.62313534  0.99763469     1.02500
C176        C  0.37526552  0.49705907  0.11999328     1.02400
C177        C  0.37836628  0.50323363  0.87511569     1.00300
H178        H  0.42983652  0.56794872  0.06839057     0.30000
O179        O  0.45000283  0.54835550  0.04841351    -1.00800
H180        H  0.43043282  0.43303758  0.92872613     0.30100
O181        O  0.45034537  0.45251103  0.94907839    -1.03300
O182        O  0.57695397  0.63700226  0.00203920    -0.80600
O183        O  0.57697180  0.36361751  0.99459097    -0.80100
O184        O  0.49865244  0.57635425  0.13683366    -0.78500
O185        O  0.49720905  0.58180985  0.86481091    -0.81900
O186        O  0.50146132  0.42469160  0.86151478    -0.79700
O187        O  0.50006742  0.41967007  0.13382003    -0.78400
O188        O  0.63440912  0.49967860  0.07923591    -0.79900
O189        O  0.63617705  0.49827957  0.92162630    -0.81800
O190        O  0.57649562  0.49869778  0.13672042    -0.78600
O191        O  0.57833960  0.50102561  0.86410013    -0.81200
O192        O  0.49692981  0.63496339  0.07980016    -0.77000
O193        O  0.50053799  0.36241460  0.07557952    -0.77000
O194        O  0.49785699  0.36551345  0.91796075    -0.76700
O195        O  0.50006966  0.63849096  0.92387631    -0.80200
O196        O  0.63519039  0.57967667  0.99897092    -0.79600
O197        O  0.63445874  0.42170770  0.99857852    -0.77900
Eu198      Eu  0.49913653  0.59711154  0.00083176     2.39800
Eu199      Eu  0.49840030  0.40320734  0.99748902     2.39600
Eu200      Eu  0.49848216  0.49879341  0.09606058     2.38400
Eu201      Eu  0.49961932  0.50228117  0.90238618     2.39900
Eu202      Eu  0.59609578  0.50062911  0.99985431     2.39800
O203        O  0.54723246  0.45308808  0.95074122    -0.92300
O204        O  0.54765220  0.54840993  0.04920593    -0.91200
C205        C  0.62101819  0.62365450  0.00038502     1.02800
C206        C  0.62095863  0.37761730  0.99608615     1.01600
C207        C  0.49737971  0.62053973  0.12360713     1.01000
C208        C  0.49836001  0.62550776  0.87969999     1.03000
C209        C  0.50011058  0.38036799  0.87427579     1.01900
C210        C  0.50093189  0.37569005  0.11986990     1.00700
C211        C  0.62066942  0.49907050  0.12337431     1.00800
C212        C  0.62238214  0.49902916  0.87754186     1.03400
H213        H  0.56696251  0.43089056  0.06635986     0.30800
O214        O  0.54702227  0.45111011  0.04677479    -1.04500
H215        H  0.56818630  0.57018983  0.93177026     0.32800
O216        O  0.54825437  0.55003682  0.95145183    -1.07000
C217        C  0.46369783  0.18981009  0.26259187    -0.27700
C218        C  0.49640733  0.22796089  0.26615584     0.05900
C219        C  0.52714557  0.22973888  0.30603710     0.25500
C220        C  0.52495082  0.19446354  0.34123599    -0.12200
C221        C  0.49325014  0.15590328  0.33697685    -0.26100
C222        C  0.46261256  0.15361172  0.29721576     0.36400
C223        C  0.49850403  0.26556055  0.22842353     0.05900
F224        F  0.56060923  0.26459164  0.31036295    -0.19900
H225        H  0.54920426  0.19653248  0.37137504     0.15800
F226        F  0.43096649  0.11712001  0.29239252    -0.23600
H227        H  0.43874786  0.18807060  0.23305279     0.17600
C228        C  0.49659327  0.25361223  0.17953186     0.25600
C229        C  0.49799179  0.28939424  0.14458900    -0.12100
C230        C  0.50186385  0.33791422  0.15737779    -0.26200
C231        C  0.50545215  0.34966345  0.20634308     0.36500
C232        C  0.50294748  0.31396813  0.24119665    -0.27800
F233        F  0.49424529  0.20726507  0.16530828    -0.19900
H234        H  0.49580684  0.27891976  0.10737244     0.15800
F235        F  0.51132566  0.39559754  0.22096632    -0.23600
H236        H  0.50397921  0.32446145  0.27844786     0.17600
C237        C  0.48544201  0.75444534  0.31768136    -0.27700
C238        C  0.49901266  0.76546272  0.27064957     0.05900
C239        C  0.51335607  0.81236276  0.25966723     0.25500
C240        C  0.51389986  0.84747738  0.29519350    -0.12200
C241        C  0.50052620  0.83651828  0.34244245    -0.26100
C242        C  0.48630109  0.78942590  0.35334669     0.36400
C243        C  0.49801319  0.72796427  0.23328136     0.05900
F244        F  0.52795342  0.82398164  0.21485110    -0.19900
H245        H  0.52538116  0.88323897  0.28573472     0.15800
F246        F  0.47208783  0.77726538  0.39811938    -0.23600
H247        H  0.47355890  0.71870413  0.32671481     0.17600
C248        C  0.51988864  0.68335719  0.24103875     0.25600
C249        C  0.51895101  0.64834654  0.20545315    -0.12100
C250        C  0.49662291  0.65731552  0.16139581    -0.26200
C251        C  0.47422469  0.70173202  0.15382339     0.36500
C252        C  0.47492082  0.73662081  0.18955193    -0.27800
F253        F  0.54341880  0.67412621  0.28246363    -0.19900
H254        H  0.53666495  0.61452269  0.21198693     0.15800
F255        F  0.45069127  0.71105287  0.11239184    -0.23600
H256        H  0.45698827  0.77035977  0.18323440     0.17600
C257        C  0.50499586  0.82084024  0.74803684    -0.27700
C258        C  0.50530589  0.77229645  0.73536826     0.05900
C259        C  0.50648143  0.75968467  0.68675280     0.25500
C260        C  0.50659113  0.79507180  0.65159565    -0.12200
C261        C  0.50578811  0.84384390  0.66401168    -0.26100
C262        C  0.50532494  0.85637394  0.71293608     0.36400
C263        C  0.50322796  0.73506376  0.77291566     0.05900
F264        F  0.50828842  0.71310325  0.67317479    -0.19900
H265        H  0.50726264  0.78403492  0.61448465     0.15800
F266        F  0.50464706  0.90277150  0.72722113    -0.23600
H267        H  0.50359645  0.83131417  0.78530302     0.17600
C268        C  0.53432051  0.73646289  0.81243528     0.25600
C269        C  0.53174958  0.70115182  0.84762769    -0.12100
C270        C  0.49879394  0.66358752  0.84357165    -0.26200
C271        C  0.46720848  0.66247358  0.80459764     0.36500
C272        C  0.46937813  0.69807865  0.76965562    -0.27800
F273        F  0.56812558  0.77106435  0.81629277    -0.19900
H274        H  0.55641721  0.70238969  0.87747339     0.15800
F275        F  0.43348874  0.62774415  0.80104275    -0.23600
H276        H  0.44428208  0.69703444  0.74018528     0.17600
C277        C  0.51852921  0.18893089  0.73880519    -0.27700
C278        C  0.50571367  0.23586546  0.72657479     0.05900
C279        C  0.49422473  0.24640634  0.67883454     0.25500
C280        C  0.49448440  0.21027680  0.64425505    -0.12200
C281        C  0.50601515  0.16285624  0.65655712    -0.26100
C282        C  0.51882617  0.15271916  0.70433491     0.36400
C283        C  0.50362288  0.27332473  0.76398585     0.05900
F284        F  0.48088796  0.29126472  0.66598870    -0.19900
H285        H  0.48451337  0.21935114  0.60795766     0.15800
F286        F  0.53189951  0.10799248  0.71796905    -0.23600
H287        H  0.52831876  0.18030702  0.77528284     0.17600
C288        C  0.47647079  0.26622567  0.80568047     0.25600
C289        C  0.47569207  0.30105432  0.84152025    -0.12100
C290        C  0.50120269  0.34393617  0.83603857    -0.26200
C291        C  0.52770102  0.35144141  0.79391033     0.36500
C292        C  0.52900200  0.31626760  0.75835952    -0.27800
F293        F  0.44973338  0.22609772  0.81117196    -0.19900
H294        H  0.45446110  0.29483815  0.87330140     0.15800
F295        F  0.55355211  0.39207286  0.78775111    -0.23600
H296        H  0.55039324  0.32225780  0.72664897     0.17600
C297        C  0.68039663  0.24451378  0.51822233    -0.27700
C298        C  0.72647875  0.23610378  0.50031888     0.05900
C299        C  0.73721340  0.19099089  0.48079108     0.25500
C300        C  0.70245762  0.15510684  0.47929778    -0.12200
C301        C  0.65628475  0.16344039  0.49715802    -0.26100
C302        C  0.64559966  0.20862513  0.51682030     0.36400
C303        C  0.76346851  0.27406737  0.50257926     0.05900
F304        F  0.78114060  0.18186597  0.46237413    -0.19900
H305        H  0.71163657  0.12080933  0.46380613     0.15800
F306        F  0.60208464  0.21768466  0.53625502    -0.23600
H307        H  0.67160926  0.27869081  0.53419671     0.17600
C308        C  0.75455473  0.32019411  0.48459821     0.25600
C309        C  0.79060980  0.35486559  0.48505840    -0.12100
C310        C  0.83621124  0.34424599  0.50333815    -0.26200
C311        C  0.84456897  0.29846207  0.52263281     0.36500
C312        C  0.80850537  0.26389612  0.52219150    -0.27800
F313        F  0.71157332  0.33125710  0.46502413    -0.19900
H314        H  0.78313008  0.38976720  0.47001834     0.15800
F315        F  0.88730071  0.28719317  0.54264314    -0.23600
H316        H  0.81575612  0.22897444  0.53730198     0.17600
C317        C  0.81885525  0.74281840  0.47214648    -0.27700
C318        C  0.77711333  0.73703947  0.49953429     0.05900
C319        C  0.77131098  0.69504942  0.52662521     0.25500
C320        C  0.80591763  0.65924805  0.52540846    -0.12200
C321        C  0.84756706  0.66496641  0.49821274    -0.26100
C322        C  0.85410298  0.70728581  0.47176628     0.36400
C323        C  0.73918478  0.77410284  0.49927910     0.05900
F324        F  0.73266735  0.68908305  0.55530873    -0.19900
H325        H  0.80060059  0.62729258  0.54665963     0.15800
F326        F  0.89375442  0.71365509  0.44452242    -0.23600
H327        H  0.82385157  0.77454924  0.45051221     0.17600
C328        C  0.74999433  0.82269988  0.50628918     0.25600
C329        C  0.71345110  0.85686489  0.50670353    -0.12100
C330        C  0.66532916  0.84326360  0.50080957    -0.26200
C331        C  0.65471668  0.79435187  0.49444689     0.36500
C332        C  0.69132252  0.76051972  0.49303236    -0.27800
F333        F  0.79566108  0.83700886  0.51423043    -0.19900
H334        H  0.72292085  0.89400483  0.51225517     0.15800
F335        F  0.60905715  0.77883268  0.48932077    -0.23600
H336        H  0.68214129  0.72336837  0.48701540     0.17600
C337        C  0.18281290  0.25698971  0.46853943    -0.27700
C338        C  0.22617418  0.26270308  0.49317520     0.05900
C339        C  0.23356184  0.30447571  0.52027965     0.25500
C340        C  0.19885113  0.34034466  0.52135416    -0.12200
C341        C  0.15562299  0.33476623  0.49651326    -0.26100
C342        C  0.14758976  0.29238754  0.47053050     0.36400
C343        C  0.26375027  0.22539433  0.49038421     0.05900
F344        F  0.27388923  0.31012105  0.54666762    -0.19900
H345        H  0.20546000  0.37225211  0.54232240     0.15800
F346        F  0.10637761  0.28579411  0.44578352    -0.23600
H347        H  0.17647113  0.22536169  0.44709670     0.17600
C348        C  0.25293401  0.17693888  0.49827499     0.25600
C349        C  0.28926914  0.14265703  0.49826962    -0.12100
C350        C  0.33716152  0.15583548  0.49042592    -0.26200
C351        C  0.34757159  0.20424069  0.48053510     0.36500
C352        C  0.31117542  0.23842227  0.48058610    -0.27800
F353        F  0.20753455  0.16288771  0.50791048    -0.19900
H354        H  0.27986630  0.10581507  0.50559843     0.15800
F355        F  0.39278003  0.21888508  0.47081008    -0.23600
H356        H  0.32012287  0.27535980  0.47307516     0.17600
C357        C  0.31522359  0.75930906  0.53741481    -0.27700
C358        C  0.27675793  0.76183776  0.50514709     0.05900
C359        C  0.27369118  0.80112304  0.47383967     0.25500
C360        C  0.30769074  0.83751785  0.47564151    -0.12200
C361        C  0.34621177  0.83483953  0.50752195    -0.26100
C362        C  0.35007410  0.79522326  0.53827746     0.36400
C363        C  0.23922763  0.72436881  0.50482200     0.05900
F364        F  0.23853079  0.80371134  0.44050393    -0.19900
H365        H  0.30465831  0.86732275  0.45107020     0.15800
F366        F  0.38674091  0.79186169  0.56989886    -0.23600
H367        H  0.31798561  0.72980235  0.56234438     0.17600
C368        C  0.25090354  0.67545158  0.50433540     0.25600
C369        C  0.21474375  0.64087939  0.50355959    -0.12100
C370        C  0.16624456  0.65433951  0.50292387    -0.26200
C371        C  0.15485414  0.70349548  0.50293378     0.36500
C372        C  0.19095099  0.73780777  0.50440672    -0.27800
F373        F  0.29720436  0.66104778  0.50334714    -0.19900
H374        H  0.22487391  0.60350436  0.50319958     0.15800
F375        F  0.10888635  0.71887059  0.50135287    -0.23600
H376        H  0.18101871  0.77523295  0.50537827     0.17600
C377        C  0.80634353  0.46840379  0.26789125    -0.27700
C378        C  0.76986953  0.50293673  0.26804213     0.05900
C379        C  0.76972679  0.53812383  0.30406814     0.25500
C380        C  0.80485155  0.53796625  0.33972974    -0.12200
C381        C  0.84125412  0.50347275  0.33939012    -0.26100
C382        C  0.84190690  0.46876896  0.30305509     0.36400
C383        C  0.73175872  0.50157428  0.23107997     0.05900
F384        F  0.73631260  0.57330277  0.30407203    -0.19900
H385        H  0.80415536  0.56530596  0.36718196     0.15800
F386        F  0.87598832  0.43422343  0.30259436    -0.23600
H387        H  0.80684878  0.44064132  0.24088036     0.17600
C388        C  0.74320946  0.49951940  0.18221230     0.25600
C389        C  0.70701276  0.49831428  0.14774428    -0.12100
C390        C  0.65846772  0.49906086  0.16104055    -0.26200
C391        C  0.64713751  0.50047794  0.21025979     0.36500
C392        C  0.68347916  0.50183443  0.24466136    -0.27800
F393        F  0.78946514  0.49999023  0.16766063    -0.19900
H394        H  0.71724357  0.49717091  0.11042589     0.15800
F395        F  0.60110282  0.50074706  0.22549787    -0.23600
H396        H  0.67386795  0.50271427  0.28217172     0.17600
C397        C  0.24269611  0.48888690  0.31343261    -0.27700
C398        C  0.22902831  0.49413795  0.26544672     0.05900
C399        C  0.18030166  0.49830392  0.25424734     0.25500
C400        C  0.14609631  0.49836066  0.29064521    -0.12200
C401        C  0.15964948  0.49400967  0.33899544    -0.26100
C402        C  0.20856692  0.48858690  0.34990057     0.36400
C403        C  0.26592858  0.49552718  0.22751237     0.05900
F404        F  0.16583485  0.50379244  0.20823879    -0.19900
H405        H  0.10889863  0.50237387  0.28078575     0.15800
F406        F  0.22374546  0.48292296  0.39564756    -0.23600
H407        H  0.28005533  0.48477703  0.32267666     0.17600
C408        C  0.30452775  0.52759240  0.23070507     0.25600
C409        C  0.34025804  0.52751390  0.19582253    -0.12100
C410        C  0.33765175  0.49613637  0.15679012    -0.26200
C411        C  0.29874397  0.46452541  0.15309772     0.36500
C412        C  0.26328860  0.46415931  0.18835651    -0.27800
F413        F  0.30710287  0.55969471  0.26703347    -0.19900
H414        H  0.36962116  0.55258928  0.19881769     0.15800
F415        F  0.29592129  0.43292861  0.11632576    -0.23600
H416        H  0.23413862  0.43883111  0.18553411     0.17600
C417        C  0.19221159  0.46763626  0.73443859    -0.27700
C418        C  0.23042784  0.50005049  0.73061467     0.05900
C419        C  0.23234042  0.53113937  0.69104921     0.25500
C420        C  0.19693984  0.52934524  0.65601843    -0.12200
C421        C  0.15859572  0.49742262  0.66032326    -0.26100
C422        C  0.15619266  0.46670176  0.69993299     0.36400
C423        C  0.26823089  0.50101973  0.76765226     0.05900
F424        F  0.26777001  0.56401002  0.68670424    -0.19900
H425        H  0.19894050  0.55361879  0.62587973     0.15800
F426        F  0.11990696  0.43479419  0.70444025    -0.23600
H427        H  0.19050974  0.44255391  0.76388566     0.17600
C428        C  0.25654827  0.50003197  0.81653229     0.25600
C429        C  0.29251514  0.50095637  0.85099223    -0.12100
C430        C  0.34091263  0.50318225  0.83765807    -0.26200
C431        C  0.35253885  0.50449651  0.78859249     0.36500
C432        C  0.31649817  0.50292946  0.75417172    -0.27800
F433        F  0.21032997  0.49914100  0.83118493    -0.19900
H434        H  0.28220807  0.49998096  0.88829937     0.15800
F435        F  0.39855231  0.50721425  0.77350439    -0.23600
H436        H  0.32646641  0.50278742  0.71675833     0.17600
C437        C  0.81036829  0.52492811  0.73724958    -0.27700
C438        C  0.76845079  0.49812455  0.73049683     0.05900
C439        C  0.76196765  0.47342141  0.68711695     0.25500
C440        C  0.79671381  0.47577702  0.65129385    -0.12200
C441        C  0.83903401  0.50177551  0.65847251    -0.26100
C442        C  0.84554060  0.52652230  0.70179220     0.36400
C443        C  0.73121238  0.49700511  0.76823637     0.05900
F444        F  0.72276634  0.44572780  0.67997838    -0.19900
H445        H  0.79117415  0.45605369  0.61840570     0.15800
F446        F  0.88540542  0.55310274  0.70944771    -0.23600
H447        H  0.81569910  0.54505278  0.76991559     0.17600
C448        C  0.74301133  0.48784806  0.81626826     0.25600
C449        C  0.70758168  0.48846031  0.85154500    -0.12100
C450        C  0.65959295  0.49772272  0.83964655    -0.26200
C451        C  0.64784340  0.50585048  0.79123613     0.36500
C452        C  0.68337144  0.50584241  0.75623718    -0.27800
F453        F  0.78862578  0.47733394  0.82897698    -0.19900
H454        H  0.71780898  0.48135255  0.88821167     0.15800
F455        F  0.60218236  0.51459059  0.77741544    -0.23600
H456        H  0.67348158  0.51348357  0.71958101     0.17600
C457        C  0.81178107  0.75989306  0.01177206    -0.27700
C458        C  0.76528395  0.77168188  0.99723732     0.05900
C459        C  0.75472875  0.81943112  0.98549629     0.25500
C460        C  0.79036734  0.85441715  0.98770694    -0.12200
C461        C  0.83723735  0.84256392  0.00160237    -0.26100
C462        C  0.84740729  0.79479238  0.01414518     0.36400
C463        C  0.72779451  0.73424776  0.99628156     0.05900
F464        F  0.71025247  0.83208711  0.97082840    -0.19900
H465        H  0.78133613  0.89073428  0.97773174     0.15800
F466        F  0.89148471  0.78171666  0.02958890    -0.23600
H467        H  0.82036762  0.72357083  0.02213384     0.17600
C468        C  0.73568602  0.69016635  0.97328308     0.25600
C469        C  0.70097216  0.65422939  0.97499128    -0.12100
C470        C  0.65774783  0.66165185  0.99939977    -0.26200
C471        C  0.64979112  0.70588609  0.02212073     0.36500
C472        C  0.68452625  0.74171568  0.02048057    -0.27800
F473        F  0.77668931  0.68206816  0.94866160    -0.19900
H474        H  0.70767737  0.62072347  0.95672887     0.15800
F475        F  0.60922793  0.71392771  0.04747780    -0.23600
H476        H  0.67811351  0.77498904  0.03925162     0.17600
C477        C  0.81713884  0.24523504  0.98253354    -0.27700
C478        C  0.77054957  0.23434940  0.99769108     0.05900
C479        C  0.76035045  0.18769732  0.01340010     0.25500
C480        C  0.79590990  0.15262903  0.01335844    -0.12200
C481        C  0.84250597  0.16322057  0.99786190    -0.26100
C482        C  0.85287018  0.21019226  0.98261494     0.36400
C483        C  0.73257650  0.27142560  0.99658095     0.05900
F484        F  0.71614580  0.17619974  0.02969092    -0.19900
H485        H  0.78695059  0.11710925  0.02593358     0.15800
F486        F  0.89705476  0.22210220  0.96651749    -0.23600
H487        H  0.82567289  0.28079460  0.96976779     0.17600
C488        C  0.73977094  0.31649390  0.01769724     0.25600
C489        C  0.70332432  0.35065634  0.01724485    -0.12100
C490        C  0.65901858  0.34076866  0.99566126    -0.26200
C491        C  0.65208200  0.29591237  0.97384007     0.36500
C492        C  0.68857008  0.26169926  0.97439337    -0.27800
F493        F  0.78159493  0.32714429  0.03984639    -0.19900
H494        H  0.70960988  0.38478620  0.03447700     0.15800
F495        F  0.61063977  0.28549999  0.95085786    -0.23600
H496        H  0.68263098  0.22760295  0.95698520     0.17600
C497        C  0.30880532  0.73656447  0.97059168    -0.27700
C498        C  0.26954365  0.73198271  0.00159652     0.05900
C499        C  0.26618495  0.69132449  0.03103085     0.25500
C500        C  0.30087525  0.65559451  0.02861170    -0.12200
C501        C  0.34022130  0.66041465  0.99799789    -0.26100
C502        C  0.34422369  0.70135998  0.96913048     0.36400
C503        C  0.23178487  0.76909253  0.00241683     0.05900
F504        F  0.23015464  0.68679639  0.06318244    -0.19900
H505        H  0.29771376  0.62465123  0.05171450     0.15800
F506        F  0.38165600  0.70672775  0.93871945    -0.23600
H507        H  0.31178500  0.76721708  0.94710858     0.17600
C508        C  0.24345074  0.81784287  0.00579734     0.25600
C509        C  0.20743701  0.85239555  0.00566663    -0.12100
C510        C  0.15896847  0.83919152  0.00236420    -0.26200
C511        C  0.14744402  0.79018898  0.99918736     0.36500
C512        C  0.18355922  0.75572853  0.99913991    -0.27800
F513        F  0.28960791  0.83208568  0.01027681    -0.19900
H514        H  0.21772255  0.88963136  0.00841142     0.15800
F515        F  0.10144811  0.77526162  0.99555308    -0.23600
H516        H  0.17380152  0.71838804  0.99581875     0.17600
C517        C  0.24093132  0.18694859  0.98731971    -0.27700
C518        C  0.22997056  0.23204712  0.00648388     0.05900
C519        C  0.18382704  0.24040792  0.02449605     0.25500
C520        C  0.14930713  0.20439141  0.02269649    -0.12200
C521        C  0.16027530  0.15918643  0.00359040    -0.26100
C522        C  0.20666630  0.15068840  0.98612724     0.36400
C523        C  0.26652589  0.27034091  0.00632214     0.05900
F524        F  0.17238473  0.28301473  0.04476379    -0.19900
H525        H  0.11407837  0.21171172  0.03696140     0.15800
F526        F  0.21869548  0.10784525  0.96672285    -0.23600
H527        H  0.27599317  0.17998859  0.97249975     0.17600
C528        C  0.31314165  0.26140553  0.02276425     0.25600
C529        C  0.34796207  0.29704710  0.02021842    -0.12100
C530        C  0.33704927  0.34240873  0.00155939    -0.26200
C531        C  0.29011444  0.35152969  0.98562325     0.36500
C532        C  0.25537969  0.31570236  0.98793832    -0.27800
F533        F  0.32489421  0.21840845  0.04197879    -0.19900
H534        H  0.38349883  0.28920218  0.03339147     0.15800
F535        F  0.27796347  0.39446195  0.96648260    -0.23600
H536        H  0.21990816  0.32309660  0.97432589     0.17600
C537        C  0.69219055  0.97621281  0.73331029    -0.27700
C538        C  0.73405417  0.00327125  0.72745339     0.05900
C539        C  0.73978869  0.03060536  0.68551853     0.25500
C540        C  0.70413487  0.03081467  0.65047599    -0.12200
C541        C  0.66200196  0.00437579  0.65690481    -0.26100
C542        C  0.65632177  0.97697919  0.69866918     0.36400
C543        C  0.77145965  0.00249640  0.76507331     0.05900
F544        F  0.77931501  0.05792949  0.67883645    -0.19900
H545        H  0.70910495  0.05226926  0.61860625     0.15800
F546        F  0.61680082  0.94961151  0.70529710    -0.23600
H547        H  0.68746689  0.95385441  0.76456815     0.17600
C548        C  0.75937370  0.00773664  0.81361662     0.25600
C549        C  0.79483449  0.00698886  0.84871553    -0.12100
C550        C  0.84317384  0.00077605  0.83646098    -0.26200
C551        C  0.85514863  0.99492629  0.78774065     0.36500
C552        C  0.81957567  0.99579293  0.75265913    -0.27800
F553        F  0.71332185  0.01450970  0.82722575    -0.19900
H554        H  0.78422584  0.01158714  0.88566422     0.15800
F555        F  0.90100276  0.98775081  0.77367936    -0.23600
H556        H  0.82964970  0.99048720  0.71564582     0.17600
C557        C  0.18936055  0.01419268  0.76156858    -0.27700
C558        C  0.23231248  0.98963612  0.77005154     0.05900
C559        C  0.23948202  0.96779343  0.81482603     0.25500
C560        C  0.20426911  0.97047000  0.85019037    -0.12200
C561        C  0.16121743  0.99477080  0.84159020    -0.26100
C562        C  0.15413081  0.01686538  0.79690735     0.36400
C563        C  0.27016089  0.98876660  0.73286477     0.05900
F564        F  0.28022639  0.94318507  0.82414357    -0.19900
H565        H  0.21040730  0.95290849  0.88416716     0.15800
F566        F  0.11390557  0.04248673  0.78794263    -0.23600
H567        H  0.18352188  0.03229286  0.72782923     0.17600
C568        C  0.25963797  0.97637688  0.68526769     0.25600
C569        C  0.29528383  0.97817218  0.65025184    -0.12100
C570        C  0.34226669  0.99197985  0.66191938    -0.26200
C571        C  0.35290564  0.00311997  0.70993394     0.36500
C572        C  0.31710851  0.00181691  0.74474034    -0.27800
F573        F  0.21507139  0.96186407  0.67271431    -0.19900
H574        H  0.28600712  0.96852772  0.61390530     0.15800
F575        F  0.39755937  0.01645075  0.72334715    -0.23600
H576        H  0.32595093  0.01202346  0.78104003     0.17600
C577        C  0.18348792  0.97747733  0.24237604    -0.27700
C578        C  0.22747444  0.00041306  0.23520929     0.05900
C579        C  0.23590326  0.02439163  0.19186170     0.25500
C580        C  0.20126205  0.02425891  0.15581576    -0.12200
C581        C  0.15730665  0.00101843  0.16277182    -0.26100
C582        C  0.14854669  0.97789574  0.20665998     0.36400
C583        C  0.26483269  0.99830332  0.27256944     0.05900
F584        F  0.27723018  0.04882073  0.18488734    -0.19900
H585        H  0.20849484  0.04300738  0.12270468     0.15800
F586        F  0.10679976  0.95446490  0.21455548    -0.23600
H587        H  0.17651048  0.95856784  0.27545210     0.17600
C588        C  0.25549428  0.01401729  0.31934794     0.25600
C589        C  0.29125218  0.01196704  0.35419721    -0.12100
C590        C  0.33699865  0.99438708  0.34299657    -0.26200
C591        C  0.34598699  0.97800129  0.29620086     0.36500
C592        C  0.31018251  0.98008876  0.26143763    -0.27800
F593        F  0.21228058  0.03275357  0.33091447    -0.19900
H594        H  0.28338913  0.02516009  0.38975529     0.15800
F595        F  0.38905396  0.95923433  0.28411322    -0.23600
H596        H  0.31773512  0.96710725  0.22572919     0.17600
C597        C  0.81272656  0.00292963  0.24146424    -0.27700
C598        C  0.76500912  0.99548387  0.22806801     0.05900
C599        C  0.75378037  0.99037374  0.17936274     0.25500
C600        C  0.78981978  0.99233239  0.14485309    -0.12200
C601        C  0.83780704  0.99961421  0.15809938    -0.26100
C602        C  0.84881415  0.00512918  0.20705410     0.36400
C603        C  0.72712799  0.99456803  0.26501485     0.05900
F604        F  0.70805018  0.98258842  0.16518169    -0.19900
H605        H  0.78001720  0.98777284  0.10766893     0.15800
F606        F  0.89423757  0.01334234  0.22195549    -0.23600
H607        H  0.82200252  0.00788494  0.27874759     0.17600
C608        C  0.73168960  0.96570661  0.30597621     0.25600
C609        C  0.69694028  0.96724415  0.34180678    -0.12100
C610        C  0.65657532  0.99659319  0.33682814    -0.26200
C611        C  0.65139980  0.02456950  0.29540140     0.36500
C612        C  0.68665290  0.02382954  0.26007353    -0.27800
F613        F  0.76919948  0.93532168  0.31086550    -0.19900
H614        H  0.70112468  0.94484906  0.37314489     0.15800
F615        F  0.61312114  0.05386018  0.28983985    -0.23600
H616        H  0.68274158  0.04680846  0.22914542     0.17600
C617        C  0.00600089  0.24166811  0.81426699    -0.27700
C618        C  0.99739699  0.22851603  0.76657327     0.05900
C619        C  0.98955354  0.18006065  0.75567915     0.25500
C620        C  0.99111100  0.14554363  0.79169794    -0.12200
C621        C  0.99979407  0.15855858  0.83948239    -0.26100
C622        C  0.00678835  0.20731841  0.85050089     0.36400
C623        C  0.99702297  0.26545305  0.72849188     0.05900
F624        F  0.97908031  0.16613877  0.71038889    -0.19900
H625        H  0.98481218  0.10855344  0.78208323     0.15800
F626        F  0.01479240  0.22208257  0.89607400    -0.23600
H627        H  0.01260566  0.27870644  0.82349222     0.17600
C628        C  0.97127055  0.30824230  0.73442282     0.25600
C629        C  0.97251834  0.34354412  0.69913648    -0.12100
C630        C  0.99838850  0.33649450  0.65674141    -0.26200
C631        C  0.02342583  0.29328724  0.65026613     0.36500
C632        C  0.02309048  0.25840720  0.68611978    -0.27800
F633        F  0.94382916  0.31544573  0.77377471    -0.19900
H634        H  0.95234111  0.37615685  0.70454702     0.15800
F635        F  0.04927842  0.28524915  0.60998199    -0.23600
H636        H  0.04373483  0.22604544  0.68100856     0.17600
C637        C  0.01468013  0.68443950  0.74400797    -0.27700
C638        C  0.99912126  0.73066999  0.73225095     0.05900
C639        C  0.98572708  0.74072274  0.68491673     0.25500
C640        C  0.98738660  0.70484973  0.65016636    -0.12200
C641        C  0.00260429  0.65829172  0.66181647    -0.26100
C642        C  0.01662180  0.64853878  0.70923749     0.36400
C643        C  0.99801691  0.76838312  0.76934888     0.05900
F644        F  0.97005708  0.78496475  0.67250787    -0.19900
H645        H  0.97612210  0.71347450  0.61413074     0.15800
F646        F  0.03323916  0.60474180  0.72192309    -0.23600
H647        H  0.02601763  0.67633750  0.78015137     0.17600
C648        C  0.97298855  0.76142994  0.81236320     0.25600
C649        C  0.97412790  0.79639090  0.84812821    -0.12100
C650        C  0.99948838  0.83918827  0.84120775    -0.26200
C651        C  0.02368759  0.84649227  0.79764420     0.36500
C652        C  0.02308280  0.81123303  0.76225141    -0.27800
F653        F  0.94658056  0.72130217  0.81927095    -0.19900
H654        H  0.95444507  0.79038700  0.88092941     0.15800
F655        F  0.04903763  0.88712738  0.78971211    -0.23600
H656        H  0.04285175  0.81706523  0.72946881     0.17600
C657        C  0.02265038  0.74218241  0.31636817    -0.27700
C658        C  0.99587358  0.73574747  0.27432510     0.05900
C659        C  0.97098413  0.69241637  0.26776400     0.25500
C660        C  0.97366338  0.65625233  0.30207648    -0.12200
C661        C  0.00036209  0.66276213  0.34402427    -0.26100
C662        C  0.02463531  0.70627370  0.35110861     0.36400
C663        C  0.99558550  0.77320740  0.23658620     0.05900
F664        F  0.94334325  0.68522240  0.22852708    -0.19900
H665        H  0.95406495  0.62335285  0.29620610     0.15800
F666        F  0.05154712  0.71353638  0.39085713    -0.23600
H667        H  0.04298971  0.77465308  0.32191620     0.17600
C668        C  0.98956614  0.82194831  0.24775964     0.25600
C669        C  0.98969187  0.85637079  0.21142814    -0.12100
C670        C  0.99562013  0.84306379  0.16320003    -0.26200
C671        C  0.00161746  0.79421142  0.15225573     0.36500
C672        C  0.00201411  0.76003350  0.18858018    -0.27800
F673        F  0.98263984  0.83635866  0.29360074    -0.19900
H674        H  0.98484338  0.89353738  0.22119817     0.15800
F675        F  0.00783646  0.77910626  0.10655897    -0.23600
H676        H  0.00802444  0.72298546  0.17904380     0.17600
C677        C  0.99273112  0.24851157  0.17803886    -0.27700
C678        C  0.00196725  0.23712756  0.22600711     0.01500
C679        C  0.01071625  0.18926176  0.23856999     0.25500
C680        C  0.00979293  0.15345622  0.20389241    -0.12200
C681        C  0.00060843  0.16452553  0.15579335    -0.26100
C682        C  0.99218749  0.21274244  0.14309773     0.36400
C683        C  0.00156796  0.27477834  0.26321368     0.05900
F684        F  0.02125428  0.17718830  0.28437221    -0.19900
H685        H  0.01691438  0.11698813  0.21479528     0.15800
F686        F  0.98280013  0.22552594  0.09719583    -0.23600
H687        H  0.98530584  0.28510096  0.16770241     0.17600
C688        C  0.02816176  0.31715388  0.25791046     0.25600
C689        C  0.02821834  0.35147234  0.29434412    -0.12100
C690        C  0.00216965  0.34381466  0.33665476    -0.26200
C691        C  0.97551908  0.30156212  0.34170950     0.36500
C692        C  0.97494910  0.26770275  0.30513958    -0.27800
F693        F  0.05502046  0.32476868  0.21820650    -0.19900
H694        H  0.04919235  0.38372830  0.28981838     0.15800
F695        F  0.94886254  0.29355715  0.38144331    -0.23600
H696        H  0.95344122  0.23579902  0.30951954     0.17600
loop_ 
_geom_bond_atom_site_label_1 
_geom_bond_atom_site_label_2 
_geom_bond_distance 
_geom_bond_site_symmetry_2 
_ccdc_geom_bond_type 
O1           C12   1.294   1_655  A
O1          Eu37   2.469       .  S
O2           C13   1.291       .  A
O2          Eu36   2.454   1_545  S
O3           C14   1.290       .  A
O3           Eu9   2.448   1_554  S
O4           C15   1.290       .  A
O4           Eu9   2.453   1_655  S
O5           C15   1.293       .  A
O5          Eu39   2.463       .  S
O6           C14   1.291       .  A
O6          Eu38   2.454   1_545  S
O7           C13   1.288       .  A
O7           Eu9   2.437       .  S
O8           C12   1.286       .  A
O8           Eu9   2.432   1_554  S
Eu9          O19   2.348   1_456  S
Eu9          O11   2.348   1_556  S
Eu9          O10   2.346   1_455  S
Eu9          O17   2.350       .  S
O10         Eu39   2.346       .  S
O10         Eu36   2.349   1_645  S
O11         Eu37   2.346   1_455  S
O11         Eu38   2.350   1_545  S
C12         C681   1.483       .  S
C13         C621   1.482   1_455  S
C14         C521   1.478       .  S
C15         C481   1.485       .  S
H16          O17   0.966       .  S
O17         Eu38   2.351   1_546  S
O17         Eu36   2.350   1_545  S
H18          O19   0.965       .  S
O19         Eu37   2.349       .  S
O19         Eu39   2.353   1_554  S
O20          C43   1.289   1_455  A
O20         Eu36   2.448       .  S
O21          C44   1.291       .  A
O21         Eu37   2.453   1_565  S
O22          C45   1.292       .  A
O22         Eu38   2.464   1_556  S
O23          C46   1.293       .  A
O23         Eu39   2.466       .  S
O24          C47   1.292       .  A
O24         Eu39   2.456   1_554  S
O25          C48   1.292       .  A
O25         Eu38   2.464   1_545  S
O26          C49   1.292       .  A
O26         Eu40   2.463   1_455  S
O27          C50   1.292       .  A
O27         Eu40   2.461       .  S
O28          C49   1.290       .  A
O28         Eu38   2.447       .  S
O29          C50   1.291       .  A
O29         Eu39   2.454   1_564  S
O30          C45   1.290       .  A
O30         Eu36   2.452       .  S
O31          C48   1.290       .  A
O31         Eu37   2.453   1_455  S
O32          C47   1.291       .  A
O32         Eu37   2.455       .  S
O33          C46   1.290   1_565  A
O33         Eu36   2.448   1_655  S
O34          C43   1.293       .  A
O34         Eu40   2.468   1_556  S
O35          C44   1.292       .  A
O35         Eu40   2.461       .  S
Eu36         O54   2.353   1_455  S
Eu36         O42   2.348       .  S
Eu37         O41   2.350   1_545  S
Eu37         O52   2.355   1_645  S
Eu38         O52   2.354       .  S
Eu38         O42   2.353   1_554  S
Eu39         O41   2.351   1_546  S
Eu39         O54   2.353   1_545  S
Eu40         O41   2.347       .  S
Eu40         O52   2.355   1_655  S
Eu40         O54   2.352   1_554  S
Eu40         O42   2.351   1_654  S
C43         C650   1.478       .  S
C44         C670   1.487       .  S
C45         C561   1.479       .  S
C46         C550   1.487       .  S
C47         C601   1.486   1_545  S
C48         C581   1.479       .  S
C49         C510   1.486       .  S
C50         C461   1.485       .  S
H51          O52   0.965       .  S
H53          O54   0.965       .  S
O55          C66   1.288       .  A
O55         Eu91   2.443       .  S
O56          C67   1.293       .  A
O56         Eu90   2.466       .  S
O57          C68   1.290       .  A
O57         Eu63   2.455   1_455  S
O58          C69   1.292       .  A
O58         Eu63   2.459       .  S
O59          C69   1.292       .  A
O59         Eu93   2.458       .  S
O60          C68   1.292       .  A
O60         Eu92   2.459       .  S
O61          C67   1.290       .  A
O61         Eu63   2.454       .  S
O62          C66   1.292   1_655  A
O62         Eu63   2.462       .  S
Eu63         O73   2.355       .  S
Eu63         O65   2.344   1_655  S
Eu63         O64   2.352       .  S
Eu63         O71   2.353   1_655  S
O64         Eu93   2.353       .  S
O64         Eu90   2.348       .  S
O65         Eu91   2.350       .  S
O65         Eu92   2.345       .  S
C66         C690   1.474       .  S
C67         C630   1.478       .  S
C68         C341   1.478       .  S
C69         C310   1.483       .  S
H70          O71   0.965       .  S
O71         Eu92   2.352       .  S
O71         Eu90   2.357   1_455  S
H72          O73   0.965       .  S
O73         Eu91   2.356   1_655  S
O73         Eu93   2.356       .  S
O74          C97   1.293       .  A
O74         Eu90   2.466   1_455  S
O75          C98   1.292   1_655  A
O75         Eu91   2.459   1_655  S
O76          C99   1.290       .  A
O76         Eu92   2.453       .  S
O77         C100   1.291       .  A
O77         Eu93   2.455       .  S
O78         C101   1.291       .  A
O78         Eu93   2.461       .  S
O79         C102   1.292       .  A
O79         Eu92   2.463       .  S
O80         C103   1.291       .  A
O80         Eu94   2.455       .  S
O81         C104   1.289       .  A
O81         Eu94   2.449   1_655  S
O82         C103   1.291       .  A
O82         Eu92   2.453       .  S
O83         C104   1.292       .  A
O83         Eu93   2.459       .  S
O84          C99   1.290       .  A
O84         Eu90   2.450   1_455  S
O85         C102   1.290       .  A
O85         Eu91   2.448       .  S
O86         C101   1.291       .  A
O86         Eu91   2.461   1_655  S
O87         C100   1.292       .  A
O87         Eu90   2.464       .  S
O88          C97   1.291       .  A
O88         Eu94   2.453       .  S
O89          C98   1.289       .  A
O89         Eu94   2.445       .  S
Eu90        O108   2.351       .  S
Eu90         O96   2.354   1_655  S
Eu91         O95   2.343   1_455  S
Eu91        O106   2.354       .  S
Eu92        O106   2.354       .  S
Eu92         O96   2.353       .  S
Eu93         O95   2.347       .  S
Eu93        O108   2.354       .  S
Eu94         O95   2.349   1_455  S
Eu94        O106   2.349       .  S
Eu94        O108   2.353   1_455  S
Eu94         O96   2.345       .  S
C97         C641   1.484       .  S
C98         C661   1.476       .  S
C99         C421   1.466       .  S
C100        C441   1.477       .  S
C101        C381   1.474       .  S
C102        C401   1.488       .  S
C103        C370   1.487       .  S
C104        C321   1.473       .  S
H105        O106   0.965       .  S
H107        O108   0.965       .  S
O109        C120   1.291       .  A
O109       Eu145   2.455   1_565  S
O110        C121   1.291       .  A
O110       Eu144   2.452       .  S
O111        C122   1.290       .  A
O111       Eu117   2.449       .  S
O112        C123   1.291       .  A
O112       Eu117   2.461   1_545  S
O113        C123   1.291       .  A
O113       Eu147   2.454       .  S
O114        C122   1.292       .  A
O114       Eu146   2.464       .  S
O115        C121   1.291       .  A
O115       Eu117   2.458       .  S
O116        C120   1.291       .  A
O116       Eu117   2.455       .  S
Eu117       O127   2.355   1_565  S
Eu117       O119   2.356       .  S
Eu117       O118   2.342   1_565  S
Eu117       O125   2.354       .  S
O118       Eu147   2.346       .  S
O118       Eu144   2.345   1_545  S
O119       Eu145   2.353   1_565  S
O119       Eu146   2.350       .  S
C120        C610   1.472       .  S
C121        C590   1.482       .  S
C122        C241   1.483       .  S
C123        C221   1.474       .  S
H124        O125   0.965       .  S
O125       Eu146   2.357       .  S
O125       Eu144   2.353       .  S
H126        O127   0.966       .  S
O127       Eu145   2.356       .  S
O127       Eu147   2.354       .  S
O128        C151   1.291       .  A
O128       Eu144   2.453       .  S
O129        C152   1.291       .  A
O129       Eu145   2.458       .  S
O130        C153   1.290       .  A
O130       Eu146   2.452       .  S
O131        C154   1.290       .  A
O131       Eu147   2.451       .  S
O132        C155   1.291       .  A
O132       Eu147   2.454       .  S
O133        C156   1.292       .  A
O133       Eu146   2.460       .  S
O134        C157   1.289       .  A
O134       Eu148   2.447   1_565  S
O135        C158   1.290       .  A
O135       Eu148   2.451       .  S
O136        C157   1.292       .  A
O136       Eu146   2.458       .  S
O137        C158   1.293       .  A
O137       Eu147   2.463       .  S
O138        C153   1.292       .  A
O138       Eu144   2.462       .  S
O139        C156   1.291       .  A
O139       Eu145   2.458   1_565  S
O140        C155   1.292       .  A
O140       Eu145   2.460       .  S
O141        C154   1.293       .  A
O141       Eu144   2.464   1_545  S
O142        C151   1.292       .  A
O142       Eu148   2.464   1_565  S
O143        C152   1.290       .  A
O143       Eu148   2.451       .  S
Eu144       O162   2.360   1_565  S
Eu144       O150   2.346       .  S
Eu145       O149   2.349       .  S
Eu145       O160   2.353   1_545  S
Eu146       O160   2.348       .  S
Eu146       O150   2.348       .  S
Eu147       O149   2.344       .  S
Eu147       O162   2.359       .  S
Eu148       O149   2.348       .  S
Eu148       O160   2.355   1_545  S
Eu148       O162   2.356       .  S
Eu148       O150   2.343   1_545  S
C151        C570   1.488       .  S
C152        C541   1.474       .  S
C153        C361   1.472       .  S
C154        C350   1.487       .  S
C155        C301   1.482       .  S
C156        C330   1.488       .  S
C157        C261   1.485       .  S
C158        C281   1.487       .  S
H159        O160   0.965       .  S
H161        O162   0.965       .  S
O163        C174   1.293       .  A
O163       Eu199   2.467       .  S
O164        C175   1.289       .  A
O164       Eu198   2.451   1_556  S
O165        C176   1.290       .  A
O165       Eu171   2.451   1_554  S
O166        C177   1.291       .  A
O166       Eu171   2.453       .  S
O167        C177   1.289       .  A
O167       Eu201   2.443       .  S
O168        C176   1.292       .  A
O168       Eu200   2.466       .  S
O169        C175   1.290       .  A
O169       Eu171   2.452       .  S
O170        C174   1.289       .  A
O170       Eu171   2.443       .  S
Eu171       O181   2.351       .  S
Eu171       O173   2.352   1_556  S
Eu171       O172   2.345       .  S
Eu171       O179   2.350   1_556  S
O172       Eu201   2.346       .  S
O172       Eu198   2.345   1_556  S
O173       Eu199   2.350   1_554  S
O173       Eu200   2.351       .  S
C174        C530   1.481   1_556  S
C175        C501   1.470       .  S
C176        C410   1.473       .  S
C177        C430   1.482       .  S
H178        O179   0.965       .  S
O179       Eu200   2.353       .  S
O179       Eu198   2.350       .  S
H180        O181   0.965       .  S
O181       Eu199   2.354       .  S
O181       Eu201   2.355       .  S
O182        C205   1.290       .  A
O182       Eu198   2.447       .  S
O183        C206   1.293       .  A
O183       Eu199   2.464       .  S
O184        C207   1.290       .  A
O184       Eu200   2.450       .  S
O185        C208   1.291       .  A
O185       Eu201   2.461       .  S
O186        C209   1.290       .  A
O186       Eu201   2.453       .  S
O187        C210   1.290       .  A
O187       Eu200   2.452       .  S
O188        C211   1.293       .  A
O188       Eu202   2.465   1_554  S
O189        C212   1.292       .  A
O189       Eu202   2.460       .  S
O190        C211   1.292       .  A
O190       Eu200   2.462       .  S
O191        C212   1.290       .  A
O191       Eu201   2.450       .  S
O192        C207   1.290       .  A
O192       Eu198   2.450       .  S
O193        C210   1.293       .  A
O193       Eu199   2.465   1_554  S
O194        C209   1.292       .  A
O194       Eu199   2.461       .  S
O195        C208   1.288       .  A
O195       Eu198   2.444   1_556  S
O196        C205   1.293   1_556  A
O196       Eu202   2.466       .  S
O197        C206   1.291       .  A
O197       Eu202   2.455       .  S
Eu198       O216   2.352   1_554  S
Eu198       O204   2.351       .  S
Eu199       O203   2.350       .  S
Eu199       O214   2.355   1_556  S
Eu200       O214   2.350       .  S
Eu200       O204   2.353       .  S
Eu201       O203   2.345       .  S
Eu201       O216   2.349       .  S
Eu202       O203   2.350       .  S
Eu202       O214   2.351   1_556  S
Eu202       O216   2.353       .  S
Eu202       O204   2.351   1_556  S
C205        C470   1.479   1_554  S
C206        C490   1.482       .  S
C207        C250   1.475       .  S
C208        C270   1.468       .  S
C209        C290   1.477       .  S
C210        C230   1.489       .  S
C211        C390   1.493       .  S
C212        C450   1.487       .  S
H213        O214   0.965       .  S
H215        O216   0.965       .  S
C217        C218   1.409       .  A
C217        C222   1.401       .  A
C217        H227   1.083       .  S
C218        C223   1.491       .  S
C218        C219   1.409       .  A
C219        C220   1.395       .  A
C219        F224   1.357       .  S
C220        C221   1.401       .  A
C220        H225   1.084       .  S
C221        C222   1.406       .  A
C222        F226   1.358       .  S
C223        C228   1.408       .  A
C223        C232   1.405       .  A
C228        C229   1.399       .  A
C228        F233   1.357       .  S
C229        C230   1.407       .  A
C229        H234   1.083       .  S
C230        C231   1.412       .  A
C231        C232   1.397       .  A
C231        F235   1.358       .  S
C232        H236   1.083       .  S
C237        C238   1.403       .  A
C237        C242   1.397       .  A
C237        H247   1.083       .  S
C238        C243   1.480       .  S
C238        C239   1.406       .  A
C239        C240   1.397       .  A
C239        F244   1.358       .  S
C240        C241   1.407       .  A
C240        H245   1.083       .  S
C241        C242   1.409       .  A
C242        F246   1.357       .  S
C243        C248   1.406       .  A
C243        C252   1.404       .  A
C248        C249   1.396       .  A
C248        F253   1.357       .  S
C249        C250   1.404       .  A
C249        H254   1.083       .  S
C250        C251   1.407       .  A
C251        C252   1.396       .  A
C251        F255   1.358       .  S
C252        H256   1.083       .  S
C257        C258   1.403       .  A
C257        C262   1.397       .  A
C257        H267   1.083       .  S
C258        C263   1.480       .  S
C258        C259   1.405       .  A
C259        C260   1.395       .  A
C259        F264   1.358       .  S
C260        C261   1.407       .  A
C260        H265   1.083       .  S
C261        C262   1.412       .  A
C262        F266   1.358       .  S
C263        C268   1.407       .  A
C263        C272   1.405       .  A
C268        C269   1.396       .  A
C268        F273   1.358       .  S
C269        C270   1.402       .  A
C269        H274   1.084       .  S
C270        C271   1.404       .  A
C271        C272   1.397       .  A
C271        F275   1.358       .  S
C272        H276   1.083       .  S
C277        C278   1.403       .  A
C277        C282   1.398       .  A
C277        H287   1.083       .  S
C278        C283   1.481       .  S
C278        C279   1.405       .  A
C279        C280   1.398       .  A
C279        F284   1.357       .  S
C280        C281   1.407       .  A
C280        H285   1.083       .  S
C281        C282   1.412       .  A
C282        F286   1.358       .  S
C283        C288   1.406       .  A
C283        C292   1.404       .  A
C288        C289   1.398       .  A
C288        F293   1.357       .  S
C289        C290   1.404       .  A
C289        H294   1.083       .  S
C290        C291   1.408       .  A
C291        C292   1.399       .  A
C291        F295   1.358       .  S
C292        H296   1.083       .  S
C297        C298   1.404       .  A
C297        C302   1.399       .  A
C297        H307   1.083       .  S
C298        C303   1.484       .  S
C298        C299   1.407       .  A
C299        C300   1.398       .  A
C299        F304   1.357       .  S
C300        C301   1.405       .  A
C300        H305   1.083       .  S
C301        C302   1.410       .  A
C302        F306   1.358       .  S
C303        C308   1.407       .  A
C303        C312   1.404       .  A
C308        C309   1.399       .  A
C308        F313   1.357       .  S
C309        C310   1.407       .  A
C309        H314   1.083       .  S
C310        C311   1.409       .  A
C311        C312   1.398       .  A
C311        F315   1.358       .  S
C312        H316   1.083       .  S
C317        C318   1.407       .  A
C317        C322   1.400       .  A
C317        H327   1.083       .  S
C318        C323   1.484       .  S
C318        C319   1.407       .  A
C319        C320   1.394       .  A
C319        F324   1.357       .  S
C320        C321   1.401       .  A
C320        H325   1.084       .  S
C321        C322   1.408       .  A
C322        F326   1.358       .  S
C323        C328   1.406       .  A
C323        C332   1.403       .  A
C328        C329   1.400       .  A
C328        F333   1.358       .  S
C329        C330   1.409       .  A
C329        H334   1.083       .  S
C330        C331   1.411       .  A
C331        C332   1.395       .  A
C331        F335   1.357       .  S
C332        H336   1.083       .  S
C337        C338   1.405       .  A
C337        C342   1.398       .  A
C337        H347   1.083       .  S
C338        C343   1.484       .  S
C338        C339   1.408       .  A
C339        C340   1.397       .  A
C339        F344   1.358       .  S
C340        C341   1.404       .  A
C340        H345   1.083       .  S
C341        C342   1.408       .  A
C342        F346   1.358       .  S
C343        C348   1.406       .  A
C343        C352   1.404       .  A
C348        C349   1.398       .  A
C348        F353   1.357       .  S
C349        C350   1.408       .  A
C349        H354   1.083       .  S
C350        C351   1.412       .  A
C351        C352   1.397       .  A
C351        F355   1.358       .  S
C352        H356   1.083       .  S
C357        C358   1.407       .  A
C357        C362   1.400       .  A
C357        H367   1.083       .  S
C358        C363   1.484       .  S
C358        C359   1.408       .  A
C359        C360   1.394       .  A
C359        F364   1.357       .  S
C360        C361   1.401       .  A
C360        H365   1.084       .  S
C361        C362   1.407       .  A
C362        F366   1.358       .  S
C363        C368   1.406       .  A
C363        C372   1.403       .  A
C368        C369   1.400       .  A
C368        F373   1.358       .  S
C369        C370   1.409       .  A
C369        H374   1.083       .  S
C370        C371   1.411       .  A
C371        C372   1.394       .  A
C371        F375   1.357       .  S
C372        H376   1.083       .  S
C377        C378   1.405       .  A
C377        C382   1.399       .  A
C377        H387   1.083       .  S
C378        C383   1.486       .  S
C378        C379   1.408       .  A
C379        C380   1.400       .  A
C379        F384   1.357       .  S
C380        C381   1.403       .  A
C380        H385   1.084       .  S
C381        C382   1.405       .  A
C382        F386   1.358       .  S
C383        C388   1.405       .  A
C383        C392   1.404       .  A
C388        C389   1.399       .  A
C388        F393   1.357       .  S
C389        C390   1.409       .  A
C389        H394   1.083       .  S
C390        C391   1.413       .  A
C391        C392   1.400       .  A
C391        F395   1.357       .  S
C392        H396   1.083       .  S
C397        C398   1.403       .  A
C397        C402   1.398       .  A
C397        H407   1.083       .  S
C398        C403   1.481       .  S
C398        C399   1.404       .  A
C399        C400   1.398       .  A
C399        F404   1.358       .  S
C400        C401   1.410       .  A
C400        H405   1.083       .  S
C401        C402   1.411       .  A
C402        F406   1.357       .  S
C403        C408   1.407       .  A
C403        C412   1.405       .  A
C408        C409   1.397       .  A
C408        F413   1.357       .  S
C409        C410   1.402       .  A
C409        H414   1.084       .  S
C410        C411   1.406       .  A
C411        C412   1.399       .  A
C411        F415   1.358       .  S
C412        H416   1.083       .  S
C417        C418   1.406       .  A
C417        C422   1.396       .  A
C417        H427   1.083       .  S
C418        C423   1.481       .  S
C418        C419   1.408       .  A
C419        C420   1.394       .  A
C419        F424   1.358       .  S
C420        C421   1.401       .  A
C420        H425   1.084       .  S
C421        C422   1.404       .  A
C422        F426   1.358       .  S
C423        C428   1.406       .  A
C423        C432   1.404       .  A
C428        C429   1.394       .  A
C428        F433   1.357       .  S
C429        C430   1.407       .  A
C429        H434   1.083       .  S
C430        C431   1.411       .  A
C431        C432   1.395       .  A
C431        F435   1.358       .  S
C432        H436   1.083       .  S
C437        C438   1.405       .  A
C437        C442   1.398       .  A
C437        H447   1.083       .  S
C438        C443   1.484       .  S
C438        C439   1.408       .  A
C439        C440   1.398       .  A
C439        F444   1.358       .  S
C440        C441   1.404       .  A
C440        H445   1.083       .  S
C441        C442   1.407       .  A
C442        F446   1.358       .  S
C443        C448   1.407       .  A
C443        C452   1.402       .  A
C448        C449   1.399       .  A
C448        F453   1.358       .  S
C449        C450   1.408       .  A
C449        H454   1.083       .  S
C450        C451   1.412       .  A
C451        C452   1.396       .  A
C451        F455   1.357       .  S
C452        H456   1.083       .  S
C457        C458   1.403   1_554  A
C457        C462   1.397       .  A
C457        H467   1.083       .  S
C458        C463   1.482       .  S
C458        C459   1.406       .  A
C459        C460   1.398       .  A
C459        F464   1.358       .  S
C460        C461   1.408   1_556  A
C460        H465   1.083       .  S
C461        C462   1.410       .  A
C462        F466   1.357       .  S
C463        C468   1.408       .  A
C463        C472   1.403   1_556  A
C468        C469   1.399       .  A
C468        F473   1.358       .  S
C469        C470   1.405       .  A
C469        H474   1.083       .  S
C470        C471   1.408   1_556  A
C471        C472   1.397       .  A
C471        F475   1.358       .  S
C472        H476   1.083       .  S
C477        C478   1.405       .  A
C477        C482   1.400       .  A
C477        H487   1.083       .  S
C478        C483   1.485       .  S
C478        C479   1.406   1_556  A
C479        C480   1.397       .  A
C479        F484   1.357       .  S
C480        C481   1.406   1_554  A
C480        H485   1.083       .  S
C481        C482   1.411       .  A
C482        F486   1.358       .  S
C483        C488   1.406   1_556  A
C483        C492   1.406       .  A
C488        C489   1.398       .  A
C488        F493   1.357       .  S
C489        C490   1.407   1_554  A
C489        H494   1.083       .  S
C490        C491   1.408       .  A
C491        C492   1.400       .  A
C491        F495   1.358       .  S
C492        H496   1.083       .  S
C497        C498   1.406   1_556  A
C497        C502   1.398       .  A
C497        H507   1.083       .  S
C498        C503   1.481       .  S
C498        C499   1.407       .  A
C499        C500   1.395       .  A
C499        F504   1.357       .  S
C500        C501   1.402   1_554  A
C500        H505   1.084       .  S
C501        C502   1.406       .  A
C502        F506   1.358       .  S
C503        C508   1.405       .  A
C503        C512   1.404   1_554  A
C508        C509   1.396       .  A
C508        F513   1.358       .  S
C509        C510   1.409       .  A
C509        H514   1.083       .  S
C510        C511   1.410   1_554  A
C511        C512   1.397       .  A
C511        F515   1.357       .  S
C512        H516   1.083       .  S
C517        C518   1.404   1_556  A
C517        C522   1.396       .  A
C517        H527   1.083       .  S
C518        C523   1.481       .  S
C518        C519   1.406       .  A
C519        C520   1.397       .  A
C519        F524   1.358       .  S
C520        C521   1.406       .  A
C520        H525   1.083       .  S
C521        C522   1.408   1_554  A
C522        F526   1.358       .  S
C523        C528   1.406       .  A
C523        C532   1.404   1_554  A
C528        C529   1.396       .  A
C528        F533   1.357       .  S
C529        C530   1.405       .  A
C529        H534   1.083       .  S
C530        C531   1.411   1_554  A
C531        C532   1.398       .  A
C531        F535   1.358       .  S
C532        H536   1.083       .  S
C537        C538   1.404   1_565  A
C537        C542   1.395       .  A
C537        H547   1.083       .  S
C538        C543   1.484       .  S
C538        C539   1.409       .  A
C539        C540   1.399       .  A
C539        F544   1.358       .  S
C540        C541   1.404       .  A
C540        H545   1.083       .  S
C541        C542   1.406   1_545  A
C542        F546   1.358       .  S
C543        C548   1.407       .  A
C543        C552   1.404   1_545  A
C548        C549   1.396       .  A
C548        F553   1.358       .  S
C549        C550   1.407       .  A
C549        H554   1.083       .  S
C550        C551   1.413   1_545  A
C551        C552   1.398       .  A
C551        F555   1.357       .  S
C552        H556   1.083       .  S
C557        C558   1.405   1_545  A
C557        C562   1.398       .  A
C557        H567   1.083       .  S
C558        C563   1.485       .  S
C558        C559   1.408       .  A
C559        C560   1.399       .  A
C559        F564   1.357       .  S
C560        C561   1.404       .  A
C560        H565   1.083       .  S
C561        C562   1.408   1_565  A
C562        F566   1.358       .  S
C563        C568   1.407       .  A
C563        C572   1.404   1_565  A
C568        C569   1.399       .  A
C568        F573   1.358       .  S
C569        C570   1.409       .  A
C569        H574   1.083       .  S
C570        C571   1.410   1_565  A
C571        C572   1.398       .  A
C571        F575   1.357       .  S
C572        H576   1.083       .  S
C577        C578   1.403   1_565  A
C577        C582   1.398       .  A
C577        H587   1.083       .  S
C578        C583   1.479   1_545  S
C578        C579   1.405       .  A
C579        C580   1.399       .  A
C579        F584   1.358       .  S
C580        C581   1.405       .  A
C580        H585   1.083       .  S
C581        C582   1.409   1_545  A
C582        F586   1.358       .  S
C583        C588   1.405   1_565  A
C583        C592   1.403       .  A
C588        C589   1.398       .  A
C588        F593   1.357       .  S
C589        C590   1.407   1_545  A
C589        H594   1.083       .  S
C590        C591   1.409       .  A
C591        C592   1.397       .  A
C591        F595   1.358       .  S
C592        H596   1.083       .  S
C597        C598   1.403   1_545  A
C597        C602   1.397       .  A
C597        H607   1.083       .  S
C598        C603   1.481       .  S
C598        C599   1.405       .  A
C599        C600   1.397       .  A
C599        F604   1.358       .  S
C600        C601   1.408       .  A
C600        H605   1.083       .  S
C601        C602   1.412   1_565  A
C602        F606   1.357       .  S
C603        C608   1.407       .  A
C603        C612   1.404   1_565  A
C608        C609   1.397       .  A
C608        F613   1.358       .  S
C609        C610   1.403       .  A
C609        H614   1.084       .  S
C610        C611   1.406   1_565  A
C611        C612   1.397       .  A
C611        F615   1.358       .  S
C612        H616   1.083       .  S
C617        C618   1.404   1_455  A
C617        C622   1.397       .  A
C617        H627   1.083       .  S
C618        C623   1.484       .  S
C618        C619   1.406       .  A
C619        C620   1.396       .  A
C619        F624   1.357       .  S
C620        C621   1.406       .  A
C620        H625   1.083       .  S
C621        C622   1.411   1_655  A
C622        F626   1.358       .  S
C623        C628   1.407       .  A
C623        C632   1.406   1_655  A
C628        C629   1.396       .  A
C628        F633   1.357       .  S
C629        C630   1.403       .  A
C629        H634   1.083       .  S
C630        C631   1.408   1_655  A
C631        C632   1.399       .  A
C631        F635   1.358       .  S
C632        H636   1.083       .  S
C637        C638   1.403   1_455  A
C637        C642   1.399       .  A
C637        H647   1.083       .  S
C638        C643   1.480       .  S
C638        C639   1.404       .  A
C639        C640   1.397       .  A
C639        F644   1.358       .  S
C640        C641   1.408   1_655  A
C640        H645   1.083       .  S
C641        C642   1.410       .  A
C642        F646   1.357       .  S
C643        C648   1.406       .  A
C643        C652   1.403   1_655  A
C648        C649   1.399       .  A
C648        F653   1.357       .  S
C649        C650   1.405       .  A
C649        H654   1.083       .  S
C650        C651   1.409   1_655  A
C651        C652   1.397       .  A
C651        F655   1.358       .  S
C652        H656   1.083       .  S
C657        C658   1.406   1_455  A
C657        C662   1.398       .  A
C657        H667   1.083       .  S
C658        C663   1.487       .  S
C658        C659   1.410       .  A
C659        C660   1.396       .  A
C659        F664   1.357       .  S
C660        C661   1.403   1_655  A
C660        H665   1.083       .  S
C661        C662   1.407       .  A
C662        F666   1.358       .  S
C663        C668   1.408       .  A
C663        C672   1.404   1_655  A
C668        C669   1.400       .  A
C668        F673   1.358       .  S
C669        C670   1.409       .  A
C669        H674   1.083       .  S
C670        C671   1.410   1_655  A
C671        C672   1.395       .  A
C671        F675   1.357       .  S
C672        H676   1.083       .  S
C677        C678   1.403   1_655  A
C677        C682   1.398       .  A
C677        H687   1.083       .  S
C678        C683   1.480       .  S
C678        C679   1.405       .  A
C679        C680   1.394       .  A
C679        F684   1.357       .  S
C680        C681   1.404       .  A
C680        H685   1.083       .  S
C681        C682   1.414   1_455  A
C682        F686   1.358       .  S
C683        C688   1.407       .  A
C683        C692   1.403   1_455  A
C688        C689   1.400       .  A
C688        F693   1.358       .  S
C689        C690   1.407       .  A
C689        H694   1.084       .  S
C690        C691   1.404   1_455  A
C691        C692   1.394       .  A
C691        F695   1.357       .  S
C692        H696   1.083       .  S
