geometry optimzed in LAMMPS
_audit_creation_date              2020-11-30 
_audit_creation_method            'lammps2cif' 
_symmetry_space_group_name_H-M    'P1' 
_symmetry_Int_Tables_number       1 
_symmetry_cell_setting            triclinic 
loop_ 
_symmetry_equiv_pos_as_xyz 
  x,y,z 
_cell_length_a                    40.01923618 
_cell_length_b                    39.47675535328152 
_cell_length_c                    40.35312513485063 
_cell_angle_alpha                 89.98521442974182 
_cell_angle_beta                  89.84835798877772 
_cell_angle_gamma                 89.97739169100439 
loop_ 
_atom_site_label 
_atom_site_type_symbol 
_atom_site_fract_x 
_atom_site_fract_y 
_atom_site_fract_z 
_atom_site_charge 
C1          C  0.35443428  0.37534544  0.12878180     0.85700
C2          C  0.32702792  0.38913432  0.15225298    -0.54500
C3          C  0.30870578  0.36481287  0.16843673     0.08700
C4          C  0.31874058  0.32865662  0.15766233     0.19600
C5          C  0.37509194  0.35031064  0.15031264    -0.55200
C6          C  0.35632356  0.32628232  0.16611983     0.08800
C7          C  0.33614468  0.35155624  0.10457651    -0.54800
C8          C  0.31625998  0.32828398  0.11919866     0.09300
H9          H  0.32267779  0.41604639  0.15547600     0.13800
H10         H  0.30438341  0.30837280  0.16949993    -0.00400
H11         H  0.40197195  0.35125464  0.15317203     0.14100
H12         H  0.33751762  0.35370440  0.07779509     0.13900
C13         C  0.35648160  0.18099370  0.30476907     0.85700
C14         C  0.33712724  0.19929405  0.33275468    -0.54500
C15         C  0.31690148  0.22441758  0.32189246     0.08700
C16         C  0.31863699  0.23018723  0.28432352     0.19600
C17         C  0.32980957  0.17034056  0.27917689    -0.55200
C18         C  0.30932481  0.19600900  0.26831121     0.08800
C19         C  0.37573458  0.21020687  0.28751637    -0.54800
C20         C  0.35589795  0.23521223  0.27520030     0.09300
H21         H  0.33896143  0.19276830  0.35883362     0.13800
H22         H  0.30249132  0.25181134  0.27885002    -0.00400
H23         H  0.32964272  0.14515751  0.26846252     0.14100
H24         H  0.40248150  0.21125012  0.28405561     0.13900
C25         C  0.18164441  0.18632379  0.11221608     0.85700
C26         C  0.16132499  0.20712694  0.13796492    -0.54500
C27         C  0.18006248  0.22926737  0.15592939     0.08700
C28         C  0.21719096  0.22931015  0.14570985     0.19600
C29         C  0.19804814  0.21435408  0.09076721    -0.55200
C30         C  0.21757914  0.23610309  0.10805372     0.08800
C31         C  0.21071275  0.17000083  0.13180333    -0.54800
C32         C  0.22914669  0.19221409  0.15018700     0.09300
H33         H  0.13487047  0.20348250  0.14274333     0.13800
H34         H  0.23186604  0.24790702  0.15999542    -0.00400
H35         H  0.19391694  0.21801710  0.06452549     0.14100
H36         H  0.21585201  0.14311581  0.13062086     0.13900
C37         C  0.17311968  0.35699047  0.31561195     0.85700
C38         C  0.15765445  0.33056878  0.29118228    -0.54500
C39         C  0.18055174  0.31333166  0.27186909     0.08700
C40         C  0.21704196  0.32350583  0.28070012     0.19600
C41         C  0.19656539  0.33450141  0.33637050    -0.55200
C42         C  0.22007446  0.31762675  0.31861711     0.08800
C43         C  0.19561653  0.37948950  0.29398158    -0.54800
C44         C  0.21856845  0.36237993  0.27590293     0.09300
H45         H  0.13138811  0.32423992  0.29091824     0.13800
H46         H  0.23634536  0.31018738  0.26583192    -0.00400
H47         H  0.19443327  0.33171774  0.36306955     0.14100
H48         H  0.19206227  0.40666085  0.29154381     0.13900
C49         C  0.35144743  0.17610845  0.62199598     0.85700
C50         C  0.36621862  0.19977673  0.64843507    -0.54500
C51         C  0.34351284  0.21809581  0.66646345     0.08700
C52         C  0.30705328  0.20942981  0.65637877     0.19600
C53         C  0.32699034  0.15298687  0.64162486    -0.55200
C54         C  0.30416034  0.17039678  0.66037935     0.08800
C55         C  0.32750772  0.19802193  0.60097125    -0.54800
C56         C  0.30512463  0.21619488  0.61878820     0.09300
H57         H  0.39281675  0.20023039  0.65346494     0.13800
H58         H  0.28733640  0.22351808  0.66946043    -0.00400
H59         H  0.32756528  0.12554669  0.64115525     0.14100
H60         H  0.32810477  0.19922378  0.57410419     0.13900
C61         C  0.17087908  0.18251700  0.80702075     0.85700
C62         C  0.19229016  0.15900602  0.78458446    -0.54500
C63         C  0.21025356  0.17555094  0.76082070     0.08700
C64         C  0.20428918  0.21417558  0.76076536     0.19600
C65         C  0.19535121  0.20979330  0.82000145    -0.55200
C66         C  0.21378664  0.22626035  0.79615319     0.08800
C67         C  0.14866571  0.20112893  0.78159213    -0.54800
C68         C  0.16577538  0.21879677  0.75823360     0.09300
H69         H  0.19298268  0.13164711  0.78699230     0.13800
H70         H  0.21826063  0.22604878  0.74029381    -0.00400
H71         H  0.19703793  0.21599976  0.84612673     0.14100
H72         H  0.12162346  0.20073708  0.78156865     0.13900
C73         C  0.17391696  0.36583484  0.62678536     0.85700
C74         C  0.20117688  0.37816465  0.65072154    -0.54500
C75         C  0.21707301  0.35332185  0.66837384     0.08700
C76         C  0.20377762  0.31756201  0.65921799     0.19600
C77         C  0.19172225  0.33973986  0.60427760    -0.55200
C78         C  0.20823380  0.31507741  0.62116825     0.08800
C79         C  0.15005676  0.34338072  0.64755718    -0.54800
C80         C  0.16567138  0.31868918  0.66509516     0.09300
H81         H  0.20869827  0.40451141  0.65154005     0.13800
H82         H  0.21490076  0.29622976  0.67279457    -0.00400
H83         H  0.19197386  0.34072045  0.57741497     0.14100
H84         H  0.12314823  0.34653156  0.64841055     0.13900
C85         C  0.36367706  0.36456474  0.80358469     0.85700
C86         C  0.38235583  0.33479147  0.78627949    -0.54500
C87         C  0.36223970  0.31510209  0.76693925     0.08700
C88         C  0.32533190  0.32628111  0.76775031     0.19600
C89         C  0.34537160  0.38362087  0.77560764    -0.55200
C90         C  0.32529899  0.36370917  0.75679858     0.08800
C91         C  0.33617392  0.34553590  0.82361954    -0.54800
C92         C  0.31552155  0.32617276  0.80473088     0.09300
H93         H  0.40840543  0.32856083  0.79034414     0.13800
H94         H  0.30879343  0.31005051  0.75241760    -0.00400
H95         H  0.34874740  0.41045794  0.77082038     0.14100
H96         H  0.33323177  0.34729174  0.85029779     0.13900
C97         C  0.43904471  0.45572446  0.04277933     0.41700
N98         N  0.45486060  0.48580443  0.00145956     0.00600
C99         C  0.59991993  0.47652369  0.90943641    -0.07300
H100        H  0.62109351  0.49761805  0.03304029     0.06100
C101        C  0.55768113  0.60930588  0.02471371    -0.07600
Co102      Co  0.51713972  0.46013660  0.96968493     0.74200
N103        N  0.57617654  0.48755600  0.00557310    -0.26800
Co104      Co  0.57720347  0.52353968  0.96805719     0.74100
C105        C  0.58816541  0.59774253  0.04113964     0.41800
N106        N  0.47695666  0.58377831  0.99914460     0.00200
N107        N  0.57492680  0.56234716  0.00301695     0.00300
N108        N  0.56033410  0.43570499  0.91236896    -0.47700
H109        H  0.48433640  0.41995362  0.03751621     0.06100
N110        N  0.55393336  0.46290430  0.00663363     0.00600
N111        N  0.57717096  0.56029701  0.93071790     0.00300
C112        C  0.59153379  0.59468277  0.89224635     0.41900
N113        N  0.45397697  0.55988572  0.99832114    -0.26300
C114        C  0.47508867  0.43479694  0.90935424    -0.07200
N115        N  0.43088350  0.48252459  0.02381550    -0.47400
N116        N  0.60103066  0.56640592  0.90868194    -0.47600
C117        C  0.44581453  0.44718526  0.89143475     0.41700
N118        N  0.55499100  0.45989655  0.93441399     0.00600
N119        N  0.45726920  0.55804376  0.92597967    -0.26300
N120        N  0.47838548  0.46253448  0.00433453    -0.26800
N121        N  0.48049396  0.58167922  0.92648905     0.00200
H122        H  0.41488743  0.54960367  0.89389769     0.06100
H123        H  0.54606426  0.62890470  0.90135862     0.06100
N124        N  0.57781091  0.48404826  0.93341816    -0.26800
N125        N  0.55143162  0.58573612  0.00158974    -0.26400
N126        N  0.45862477  0.48275817  0.92932666     0.00600
C127        C  0.58909179  0.45098157  0.04519147     0.42000
C128        C  0.43201217  0.56506236  0.02282339    -0.07700
N129        N  0.55346358  0.58348827  0.93009150    -0.26400
H130        H  0.54370665  0.63246720  0.02830133     0.06100
N131        N  0.56128183  0.43982556  0.02949507    -0.47700
H132        H  0.41028068  0.54976561  0.02821280     0.06100
C133        C  0.45065113  0.59435427  0.88406230     0.41800
C134        C  0.47055555  0.44220055  0.02990551    -0.07200
Co135      Co  0.45545646  0.52158851  0.96355573     0.73800
N136        N  0.47184093  0.60589046  0.02326455    -0.47400
C137        C  0.58806417  0.44455305  0.89548858     0.42100
N138        N  0.43706558  0.47694215  0.90528086    -0.47400
Co139      Co  0.51541365  0.58432905  0.96445089     0.73900
C140        C  0.56025832  0.60615576  0.90648162    -0.07700
C141        C  0.59877552  0.48263296  0.02937751    -0.07300
N142        N  0.48115837  0.45857224  0.93232321    -0.26800
N143        N  0.59734086  0.56855385  0.02627231    -0.47600
H144        H  0.62223317  0.49078926  0.90355582     0.06100
C145        C  0.43704175  0.56393538  0.90001531    -0.07700
Cl146      Cl  0.51636096  0.52236746  0.96647563    -0.50700
C147        C  0.44419717  0.59519377  0.03936009     0.41900
H148        H  0.48865583  0.41130205  0.90646610     0.06100
N149        N  0.47748858  0.60369260  0.90198784    -0.47400
C150        C  0.36451368  0.66599998  0.13809249     0.85700
C151        C  0.38267107  0.68659822  0.16474152    -0.54500
C152        C  0.36227304  0.70222237  0.18710423     0.08700
C153        C  0.32490120  0.69400265  0.18176711     0.19600
C154        C  0.34243215  0.64045465  0.15693464    -0.55200
C155        C  0.32225516  0.65454470  0.18025947     0.08800
C156        C  0.33808850  0.69043986  0.12325808    -0.54800
C157        C  0.31762184  0.70599893  0.14597978     0.09300
H158        H  0.40967881  0.68908486  0.16529159     0.13800
H159        H  0.30908290  0.70608127  0.20085621    -0.00400
H160        H  0.34182053  0.61353753  0.15150109     0.14100
H161        H  0.33445139  0.69386170  0.09686369     0.13900
C162        C  0.18351218  0.85401997  0.12129948     0.85700
C163        C  0.19963243  0.82299616  0.10393331    -0.54500
C164        C  0.22083808  0.80513230  0.12343238     0.08700
C165        C  0.22225535  0.81795551  0.15931668     0.19600
C166        C  0.16506738  0.83673724  0.15095403    -0.55200
C167        C  0.18549719  0.81798168  0.17115624     0.08800
C168        C  0.21274354  0.87400760  0.13701814    -0.54800
C169        C  0.23270767  0.85524227  0.15716883     0.09300
H170        H  0.19262819  0.81355521  0.07973609     0.13800
H171        H  0.23918544  0.80261648  0.17513887    -0.00400
H172        H  0.13838703  0.83890717  0.15518413     0.14100
H173        H  0.21687162  0.90085785  0.13284236     0.13900
C174        C  0.18279141  0.66967282  0.31025395     0.85700
C175        C  0.20213526  0.64296191  0.28990416    -0.54500
C176        C  0.22626550  0.65606286  0.26997189     0.08700
C177        C  0.22975046  0.69502054  0.27273535     0.19600
C178        C  0.21103568  0.68786356  0.32947735    -0.55200
C179        C  0.23459337  0.70267830  0.31000774     0.08800
C180        C  0.17053530  0.69628334  0.28476644    -0.54800
C181        C  0.19484735  0.70968118  0.26446738     0.09300
H182        H  0.19715992  0.61595128  0.29107792     0.13800
H183        H  0.25058745  0.70390327  0.25718808    -0.00400
H184        H  0.21287539  0.68972238  0.35608608     0.14100
H185        H  0.14486753  0.70510517  0.28446406     0.13900
C186        C  0.36406086  0.85828201  0.30801121     0.85700
C187        C  0.38753709  0.83202280  0.29156935    -0.54500
C188        C  0.37164191  0.80798618  0.27335542     0.08700
C189        C  0.33330850  0.81311877  0.27184180     0.19600
C190        C  0.34542587  0.87313687  0.27762860    -0.55200
C191        C  0.32822657  0.84994861  0.25922624     0.08800
C192        C  0.33753021  0.83740348  0.32699479    -0.54800
C193        C  0.32183358  0.81341878  0.30849295     0.09300
H194        H  0.41446210  0.83192165  0.29482109     0.13800
H195        H  0.32072485  0.79371881  0.25653871    -0.00400
H196        H  0.34727675  0.89907173  0.26930392     0.14100
H197        H  0.33265016  0.84044968  0.35331914     0.13900
C198        C  0.44416410  0.94978058  0.39135411     0.41700
N199        N  0.47896890  0.96603469  0.42868465     0.00600
C200        C  0.47393343  0.11756583  0.51584896    -0.07300
H201        H  0.48659718  0.13211136  0.39050381     0.06100
C202        C  0.60157480  0.06577329  0.40113050    -0.07600
Co203      Co  0.45607726  0.02978473  0.46185131     0.74200
N204        N  0.48097885  0.08808566  0.42172367    -0.26800
Co205      Co  0.51829071  0.09066868  0.45789544     0.74100
C206        C  0.59162175  0.09630403  0.38345998     0.41800
N207        N  0.57682811  0.98744218  0.42961550     0.00200
N208        N  0.55623716  0.08641252  0.42233096     0.00300
N209        N  0.43372315  0.07724998  0.51751045    -0.47700
H210        H  0.40945568  0.99514797  0.40244423     0.06100
N211        N  0.45798060  0.06419521  0.42313408     0.00600
N212        N  0.55518470  0.09142518  0.49453257     0.00300
C213        C  0.58850693  0.10607391  0.53331862     0.41900
N214        N  0.55371942  0.96366507  0.43043219    -0.26300
C215        C  0.43281507  0.99076609  0.52406029    -0.07200
N216        N  0.47301474  0.94173766  0.40688344    -0.47400
N217        N  0.56126178  0.11597230  0.51609344    -0.47600
C218        C  0.44109610  0.95842313  0.53950902     0.42100
N219        N  0.45693399  0.07011626  0.49511064     0.00600
N220        N  0.55157333  0.96789844  0.50243298    -0.26300
N221        N  0.45574368  0.98968312  0.42853556    -0.26800
N222        N  0.57506403  0.99135906  0.50182545     0.00200
H223        H  0.54375922  0.92374538  0.53313847     0.06100
H224        H  0.62090057  0.05855222  0.52656226     0.06100
N225        N  0.48055388  0.09338959  0.49346195    -0.26800
N226        N  0.57849905  0.06186837  0.42484573    -0.26400
N227        N  0.47686317  0.96932793  0.50105382     0.00600
C228        C  0.44268400  0.09508766  0.38218545     0.42000
C229        C  0.56186210  0.93978473  0.40804513    -0.07700
N230        N  0.57717895  0.06658898  0.49647132    -0.26400
H231        H  0.62370068  0.05031759  0.39794533     0.06100
N232        N  0.43488182  0.06740544  0.40004740    -0.47700
H233        H  0.54856037  0.91635222  0.40397992     0.06100
C234        C  0.58840703  0.95918921  0.54265211     0.41800
C235        C  0.43253093  0.98149697  0.40616502    -0.07200
Co236      Co  0.51523600  0.96593153  0.46560728     0.73800
N237        N  0.60070506  0.98132587  0.40779537    -0.47400
C238        C  0.44286048  0.10675317  0.53167976     0.42100
N239        N  0.46880078  0.94660205  0.52398180    -0.47400
Co240      Co  0.57735859  0.02677032  0.46329603     0.73900
C241        C  0.59922753  0.07357047  0.52031451    -0.07700
C242        C  0.47338484  0.10904177  0.39661053    -0.07300
N243        N  0.45555162  0.99480010  0.50010513    -0.26800
N244        N  0.56344947  0.10801431  0.39811934    -0.47600
H245        H  0.48840619  0.14036432  0.51967850     0.06100
C246        C  0.55777818  0.94648921  0.52751436    -0.07700
Cl247      Cl  0.51674104  0.02831150  0.46221505    -0.50700
C248        C  0.59313288  0.95176799  0.39307961     0.41900
H249        H  0.41146856  0.00707246  0.52820529     0.06100
N250        N  0.59780664  0.98681520  0.52518537    -0.47400
C251        C  0.67739204  0.36177990  0.81572619     0.85700
C252        C  0.70227859  0.38577885  0.79801170    -0.54500
C253        C  0.72622105  0.36953190  0.77993875     0.08700
C254        C  0.72391188  0.33031343  0.78246025     0.19600
C255        C  0.66424013  0.33841892  0.78809747    -0.55200
C256        C  0.68818662  0.32116984  0.77057110     0.08800
C257        C  0.70069087  0.33949025  0.83724481    -0.54800
C258        C  0.72420113  0.32229763  0.81973627     0.09300
H259        H  0.70055469  0.41320845  0.79874264     0.13800
H260        H  0.74449699  0.31679770  0.77005586    -0.00400
H261        H  0.63788238  0.33719847  0.78206230     0.14100
H262        H  0.69995135  0.33819536  0.86404100     0.13900
C263        C  0.86223582  0.36491066  0.63827448     0.85700
C264        C  0.88333433  0.34018579  0.65931857    -0.54500
C265        C  0.86570981  0.32246016  0.68231699     0.08700
C266        C  0.82767058  0.32994180  0.68107454     0.19600
C267        C  0.83655342  0.34009186  0.62247823    -0.55200
C268        C  0.81762085  0.32164720  0.64472020     0.08800
C269        C  0.84202716  0.38663415  0.66264567    -0.54800
C270        C  0.82373372  0.36869160  0.68474487     0.09300
H271        H  0.90953438  0.33488843  0.65457981     0.13800
H272        H  0.81336904  0.31703800  0.70057940    -0.00400
H273        H  0.83573899  0.33540568  0.59602728     0.14100
H274        H  0.84126637  0.41412126  0.66159320     0.13900
C275        C  0.67244362  0.18199240  0.62447679     0.85700
C276        C  0.70158558  0.20001523  0.60590353    -0.54500
C277        C  0.72210630  0.21834295  0.62603055     0.08700
C278        C  0.71211596  0.21593493  0.66294768     0.19600
C279        C  0.69157014  0.15971627  0.65008952    -0.55200
C280        C  0.71175851  0.17767949  0.67082656     0.08800
C281        C  0.65477015  0.20980584  0.64478745    -0.54800
C282        C  0.67537723  0.22766074  0.66485168     0.09300
H283        H  0.70621617  0.19749579  0.57951999     0.13800
H284        H  0.72878124  0.23063123  0.67956149    -0.00400
H285        H  0.68981260  0.13236967  0.65155656     0.14100
H286        H  0.62830752  0.21542031  0.64259871     0.13900
C287        C  0.85561552  0.17224974  0.81129582     0.85700
C288        C  0.87938669  0.19264176  0.78850978    -0.54500
C289        C  0.86379259  0.21644158  0.76968674     0.08700
C290        C  0.82576679  0.21854999  0.77601841     0.19600
C291        C  0.83842942  0.20030075  0.83193957    -0.55200
C292        C  0.82175368  0.22363285  0.81385272     0.08800
C293        C  0.82790749  0.15845633  0.78817618    -0.54800
C294        C  0.81227744  0.18249731  0.76896392     0.09300
H295        H  0.90624705  0.18890215  0.78755770     0.13800
H296        H  0.81431563  0.23902023  0.76147666    -0.00400
H297        H  0.83918868  0.20234649  0.85864710     0.14100
H298        H  0.82079984  0.13194312  0.78795921     0.13900
C299        C  0.36639269  0.67899131  0.80096489     0.85700
C300        C  0.34347989  0.69598638  0.82708861    -0.54500
C301        C  0.31936504  0.71625630  0.81421874     0.08700
C302        C  0.31954183  0.71679425  0.77582585     0.19600
C303        C  0.34111935  0.65958924  0.77864135    -0.55200
C304        C  0.31716835  0.67962806  0.76472347     0.08800
C305        C  0.37945621  0.70843118  0.77905283    -0.54800
C306        C  0.35518350  0.72839490  0.76519016     0.09300
H307        H  0.34646314  0.69275504  0.85364058     0.13800
H308        H  0.29886972  0.73195108  0.76525769    -0.00400
H309        H  0.34184860  0.63279758  0.77334155     0.14100
H310        H  0.40588618  0.71273989  0.77579373     0.13900
C311        C  0.35252179  0.87228909  0.61874505     0.85700
C312        C  0.33438459  0.85247294  0.59127949    -0.54500
C313        C  0.31042837  0.83147330  0.60250695     0.08700
C314        C  0.30699938  0.83066096  0.64026775     0.19600
C315        C  0.32538086  0.88899957  0.64046677    -0.55200
C316        C  0.30190997  0.86730550  0.65260118     0.08800
C317        C  0.36606880  0.84303581  0.64127538    -0.54800
C318        C  0.34184727  0.82090777  0.65305717     0.09300
H319        H  0.34029717  0.85456849  0.56506487     0.13800
H320        H  0.28641751  0.81347924  0.64605114    -0.00400
H321        H  0.32717875  0.91508320  0.64887117     0.14100
H322        H  0.39175570  0.84037230  0.64826780     0.13900
C323        C  0.18386657  0.68494700  0.61165147     0.85700
C324        C  0.16464518  0.70700145  0.63723256    -0.54500
C325        C  0.18394487  0.72953303  0.65412745     0.08700
C326        C  0.22139973  0.72675301  0.64508797     0.19600
C327        C  0.20358368  0.70953862  0.58989789    -0.55200
C328        C  0.22315263  0.73132223  0.60689800     0.08800
C329        C  0.21048175  0.66739416  0.63391936    -0.54800
C330        C  0.23030421  0.68909641  0.65192261     0.09300
H331        H  0.13850036  0.70308512  0.64338272     0.13800
H332        H  0.23698787  0.74503290  0.65904396    -0.00400
H333        H  0.20211664  0.70972225  0.56301241     0.14100
H334        H  0.21245010  0.64026876  0.63630538     0.13900
C335        C  0.18194399  0.85509929  0.81445404     0.85700
C336        C  0.16503204  0.82978944  0.79004636    -0.54500
C337        C  0.18682980  0.81008936  0.77186697     0.08700
C338        C  0.22373244  0.81767968  0.78086346     0.19600
C339        C  0.20465239  0.83339205  0.83623421    -0.55200
C340        C  0.22622326  0.81344643  0.81932554     0.08800
C341        C  0.20515157  0.87517580  0.79079766    -0.54800
C342        C  0.22734770  0.85598567  0.77340048     0.09300
H343        H  0.13826996  0.82849505  0.78695701     0.13800
H344        H  0.24196041  0.80230387  0.76685020    -0.00400
H345        H  0.20305682  0.83311779  0.86312911     0.14100
H346        H  0.20196613  0.90195909  0.78559571     0.13900
C347        C  0.68469917  0.86812870  0.31548750     0.85700
C348        C  0.70297884  0.84632408  0.34154000    -0.54500
C349        C  0.72636748  0.82521989  0.32883294     0.08700
C350        C  0.72869613  0.82646982  0.29071216     0.19600
C351        C  0.71185603  0.88544957  0.29441506    -0.55200
C352        C  0.73468607  0.86396606  0.28090883     0.08800
C353        C  0.66983215  0.84064954  0.29212581    -0.54800
C354        C  0.69287279  0.81865994  0.27853451     0.09300
H355        H  0.69706733  0.84669338  0.36782909     0.13800
H356        H  0.74826836  0.80892963  0.28231286    -0.00400
H357        H  0.71127265  0.91226789  0.28838411     0.14100
H358        H  0.64363650  0.83865891  0.28647590     0.13900
C359        C  0.84687012  0.67362873  0.31898857     0.85700
C360        C  0.86635078  0.69766739  0.29528080    -0.54500
C361        C  0.84696637  0.72113471  0.27912465     0.08700
C362        C  0.80975579  0.71891884  0.28936896     0.19600
C363        C  0.82983482  0.69871942  0.34280237    -0.55200
C364        C  0.80939167  0.72137782  0.32802620     0.08800
C365        C  0.81854293  0.65869114  0.29778432    -0.54800
C366        C  0.79957169  0.68204151  0.28115667     0.09300
H367        H  0.89325878  0.69690437  0.29220945     0.13800
H368        H  0.79450990  0.73824247  0.27659878    -0.00400
H369        H  0.83372975  0.69905608  0.36938900     0.14100
H370        H  0.81428343  0.63162498  0.29591311     0.13900
C371        C  0.67049276  0.68009147  0.13063724     0.85700
C372        C  0.68831557  0.65766142  0.15633152    -0.54500
C373        C  0.70973504  0.67454347  0.17621216     0.08700
C374        C  0.71163479  0.71277584  0.16883482     0.19600
C375        C  0.65371917  0.70913870  0.15107264    -0.55200
C376        C  0.67524965  0.72584488  0.17177183     0.08800
C377        C  0.69844843  0.69969933  0.11182602    -0.54800
C378        C  0.72050739  0.71623537  0.13180896     0.09300
H379        H  0.68303358  0.63087085  0.15953142     0.13800
H380        H  0.72955009  0.72613376  0.18525328    -0.00400
H381        H  0.62818559  0.71753707  0.14771618     0.14100
H382        H  0.70048542  0.70045296  0.08502872     0.13900
C383        C  0.86974940  0.85519400  0.13191192     0.85700
C384        C  0.88903978  0.83304819  0.15692762    -0.54500
C385        C  0.86916170  0.81469774  0.17762069     0.08700
C386        C  0.83138332  0.81993466  0.17128994     0.19600
C387        C  0.84559074  0.83079250  0.11370438    -0.55200
C388        C  0.82586342  0.81177316  0.13413193     0.08800
C389        C  0.84518467  0.87681758  0.15315492    -0.54800
C390        C  0.82569999  0.85855794  0.17443420     0.09300
H391        H  0.91610096  0.83305094  0.15889580     0.13800
H392        H  0.81541647  0.80476903  0.18814171    -0.00400
H393        H  0.84396515  0.82882228  0.08697858     0.14100
H394        H  0.84264224  0.90408249  0.15104775     0.13900
C395        C  0.67359850  0.68095336  0.80696559     0.85700
C396        C  0.65590002  0.70596302  0.78272799    -0.54500
C397        C  0.67715430  0.72275242  0.76167219     0.08700
C398        C  0.71436484  0.71334736  0.76796975     0.19600
C399        C  0.69532411  0.65784065  0.78524526    -0.55200
C400        C  0.71657302  0.67431426  0.76483124     0.08800
C401        C  0.69794896  0.70513273  0.82519501    -0.54800
C402        C  0.71997572  0.72147479  0.80498151     0.09300
H403        H  0.62926706  0.71059599  0.78298393     0.13800
H404        H  0.73191010  0.72691424  0.75146450    -0.00400
H405        H  0.69399494  0.63035870  0.78611781     0.14100
H406        H  0.69581249  0.71136385  0.85130661     0.13900
C407        C  0.84376247  0.67639973  0.61719670     0.85700
C408        C  0.82182440  0.65291737  0.63880225    -0.54500
C409        C  0.79991204  0.66956406  0.65863581     0.08700
C410        C  0.80267622  0.70828975  0.65603057     0.19600
C411        C  0.81986445  0.70049443  0.59897595    -0.55200
C412        C  0.79861330  0.71763801  0.61919606     0.08800
C413        C  0.86114550  0.69882060  0.64398824    -0.54800
C414        C  0.83964942  0.71623301  0.66446917     0.09300
H415        H  0.82548829  0.62573631  0.64064394     0.13800
H416        H  0.78406318  0.72069842  0.67191754    -0.00400
H417        H  0.82135758  0.70535245  0.57252079     0.14100
H418        H  0.88787225  0.70038891  0.64615930     0.13900
C419        C  0.67738874  0.87937493  0.62822865     0.85700
C420        C  0.66365540  0.85450711  0.65521867    -0.54500
C421        C  0.68788319  0.83804363  0.67356676     0.08700
C422        C  0.72346390  0.84783077  0.66155696     0.19600
C423        C  0.70152260  0.90289083  0.64672603    -0.55200
C424        C  0.72537277  0.88653837  0.66413614     0.08800
C425        C  0.69901847  0.85494340  0.60725615    -0.54800
C426        C  0.72358077  0.83868091  0.62408549     0.09300
H427        H  0.63761943  0.84712212  0.65671302     0.13800
H428        H  0.74415055  0.83738310  0.67601821    -0.00400
H429        H  0.69905702  0.93028405  0.64701475     0.14100
H430        H  0.69339928  0.84877174  0.58163870     0.13900
C431        C  0.85873602  0.86922599  0.80319470     0.85700
C432        C  0.83174378  0.84812546  0.82103171    -0.54500
C433        C  0.80915554  0.83325518  0.80056166     0.08700
C434        C  0.81475790  0.84188847  0.76393276     0.19600
C435        C  0.87407384  0.84464196  0.77680293    -0.55200
C436        C  0.85082303  0.82914635  0.75653727     0.08800
C437        C  0.84020794  0.89474766  0.78091291    -0.54800
C438        C  0.81661018  0.88089319  0.76127391     0.09300
H439        H  0.83179059  0.84373931  0.84761022     0.13800
H440        H  0.79477888  0.83099286  0.74822399    -0.00400
H441        H  0.90067814  0.84166146  0.77350647     0.14100
H442        H  0.84596684  0.92160054  0.77990965     0.13900
C443        C  0.95195298  0.09354815  0.04449536     0.41700
N444        N  0.96189658  0.05316114  0.00995070     0.00600
C445        C  0.10863755  0.95877397  0.00705569    -0.07300
H446        H  0.12848029  0.08026871  0.99271867     0.06100
C447        C  0.06063293  0.07975443  0.88378245    -0.07600
Co448      Co  0.02443247  0.01600021  0.02830204     0.74200
N449        N  0.08301581  0.05342083  0.00150611    -0.26800
Co450      Co  0.08173300  0.01778375  0.96426981     0.74100
C451        C  0.09204052  0.09530828  0.89452945     0.41800
N452        N  0.97962272  0.05484430  0.91147121     0.00200
N453        N  0.07863048  0.05543432  0.92827642     0.00300
N454        N  0.06954627  0.95627676  0.04733881    -0.47700
H455        H  0.00023755  0.08266491  0.07334387     0.06100
N456        N  0.06097900  0.05367683  0.02575151     0.00600
N457        N  0.07938942  0.98157661  0.92693005     0.00300
C458        C  0.09320658  0.94312451  0.89201960     0.41900
N459        N  0.95712484  0.05309545  0.93534975    -0.26300
C460        C  0.98300967  0.95388357  0.05176237    -0.07200
N461        N  0.93977629  0.07710817  0.01757195    -0.47400
N462        N  0.10290444  0.95912740  0.91989963    -0.47600
C463        C  0.95133498  0.93826856  0.04251786     0.41700
N464        N  0.06181032  0.97922750  0.02466994     0.00600
N465        N  0.95848796  0.98007622  0.93450466    -0.26300
N466        N  0.98732672  0.05266656  0.03069312    -0.26800
N467        N  0.98029533  0.98092657  0.90985856     0.00200
H468        H  0.91372751  0.95079107  0.94279409     0.06100
H469        H  0.04679931  0.95349356  0.85989546     0.06100
N470        N  0.08415599  0.98087207  0.00070385    -0.26800
N471        N  0.05436557  0.05542659  0.90623083    -0.26400
N472        N  0.96242178  0.97875919  0.00868320     0.00600
C473        C  0.09552207  0.09348911  0.03801127     0.42000
C474        C  0.93219098  0.07443377  0.92825969    -0.07700
N475        N  0.05496976  0.98180019  0.90500473    -0.26400
H476        H  0.04606460  0.08459795  0.86174872     0.06100
N477        N  0.06755755  0.07722679  0.04820428    -0.47700
H478        H  0.90889533  0.07537659  0.94179381     0.06100
C479        C  0.94574614  0.94185804  0.89606519     0.41800
C480        C  0.98356691  0.07749617  0.05291342    -0.07200
Co481      Co  0.95922997  0.01627719  0.97223423     0.73800
N482        N  0.97131663  0.07689087  0.88818954    -0.47400
C483        C  0.09875501  0.94191351  0.03789181     0.42100
N484        N  0.93970823  0.95536245  0.01588838    -0.47400
Co485      Co  0.01719082  0.01831033  0.90753705     0.73900
C486        C  0.06143275  0.95815238  0.88190173    -0.07700
C487        C  0.10607403  0.07698951  0.00730323    -0.07300
N488        N  0.98763870  0.97874257  0.02966879    -0.26800
N489        N  0.10159548  0.07874740  0.92218242    -0.47600
H490        H  0.13163835  0.95700276  0.99310346     0.06100
C491        C  0.93585093  0.95596202  0.92812701    -0.07700
Cl492      Cl  0.02059803  0.01705339  0.96807024    -0.50700
C493        C  0.94169042  0.09075164  0.89691678     0.41900
H494        H  0.99867802  0.94885700  0.07296421     0.06100
N495        N  0.97320648  0.95891039  0.88611287    -0.47400
C496        C  0.67777181  0.17339414  0.29285011     0.85700
C497        C  0.66290737  0.19755776  0.26584717    -0.54500
C498        C  0.68649523  0.21456743  0.24711941     0.08700
C499        C  0.72249566  0.20527700  0.25802112     0.19600
C500        C  0.70180168  0.14992668  0.27402115    -0.55200
C501        C  0.72508031  0.16627481  0.25569091     0.08800
C502        C  0.69966325  0.19831860  0.31295065    -0.54800
C503        C  0.72360535  0.21440644  0.29509093     0.09300
H504        H  0.63654021  0.20199276  0.26338875     0.13800
H505        H  0.74209800  0.21854180  0.24390911    -0.00400
H506        H  0.70008245  0.12246986  0.27473568     0.14100
H507        H  0.69440808  0.20516007  0.33851889     0.13900
C508        C  0.86648118  0.18301509  0.12347721     0.85700
C509        C  0.84264111  0.20653749  0.10350532    -0.54500
C510        C  0.81926153  0.22295614  0.12237792     0.08700
C511        C  0.82068537  0.21283090  0.15931415     0.19600
C512        C  0.88027179  0.20569770  0.15163480    -0.55200
C513        C  0.85656788  0.22232029  0.17019249     0.08800
C514        C  0.84208440  0.15837690  0.14070590    -0.54800
C515        C  0.81893265  0.17338326  0.16036662     0.09300
H516        H  0.84379637  0.21050341  0.07703742     0.13800
H517        H  0.80077223  0.22527761  0.17365377    -0.00400
H518        H  0.90679627  0.20767511  0.15644172     0.14100
H519        H  0.84383332  0.13100216  0.13871545     0.13900
C520        C  0.68939411  0.37935352  0.12514444     0.85700
C521        C  0.71520640  0.35729606  0.10611390    -0.54500
C522        C  0.73977221  0.34345926  0.12529629     0.08700
C523        C  0.73596001  0.35330587  0.16219562     0.19600
C524        C  0.67666189  0.35337586  0.15135519    -0.55200
C525        C  0.70096857  0.33960508  0.17155765     0.08800
C526        C  0.70953462  0.40563850  0.14463270    -0.54800
C527        C  0.73355372  0.39211288  0.16401953     0.09300
H528        H  0.71164642  0.34922039  0.08069009     0.13800
H529        H  0.75669979  0.34558598  0.17811959    -0.00400
H530        H  0.65129454  0.34377795  0.15086053     0.14100
H531        H  0.70430583  0.43264230  0.14408325     0.13900
C532        C  0.85444629  0.36972814  0.31158004     0.85700
C533        C  0.83811717  0.39494269  0.28732787    -0.54500
C534        C  0.81891285  0.38014601  0.26369089     0.08700
C535        C  0.81918961  0.34083606  0.26521768     0.19600
C536        C  0.82558152  0.34753667  0.32454500    -0.55200
C537        C  0.80750371  0.33121961  0.30071456     0.08800
C538        C  0.87507427  0.34672958  0.28788419    -0.54800
C539        C  0.85661051  0.33121887  0.26394979     0.09300
H540        H  0.84165788  0.42216193  0.28820310     0.13800
H541        H  0.80451940  0.32846975  0.24530717    -0.00400
H542        H  0.82014488  0.34538062  0.35075726     0.14100
H543        H  0.90171141  0.34230798  0.29012123     0.13900
C544        C  0.08930370  0.44269600  0.40004257     0.41700
N545        N  0.05302364  0.45912005  0.43551666     0.00600
C546        C  0.95320155  0.60276831  0.42601477    -0.07300
H547        H  0.07179215  0.63194807  0.43617454     0.06100
C548        C  0.07396194  0.56840766  0.55242970    -0.07600
Co549      Co  0.01562551  0.51968414  0.41077079     0.74200
N550        N  0.04931060  0.58293987  0.43283383    -0.26800
Co551      Co  0.01334543  0.58300106  0.46998091     0.74100
C552        C  0.08941085  0.59909559  0.53936530     0.41800
N553        N  0.05177750  0.48618703  0.53208743     0.00200
N554        N  0.04969124  0.58395716  0.50700789     0.00300
N555        N  0.95497313  0.56121070  0.38740791    -0.47700
H556        H  0.07804835  0.48740529  0.36532320     0.06100
N557        N  0.05123924  0.55840105  0.41078494     0.00600
N558        N  0.97668681  0.58210309  0.50655645     0.00300
C559        C  0.93605251  0.59577453  0.53831258     0.41900
N560        N  0.05286078  0.46174769  0.50979530    -0.26300
C561        C  0.95749762  0.47299196  0.38921265    -0.07200
N562        N  0.07446102  0.43440502  0.42896434    -0.47400
N563        N  0.95282535  0.60491141  0.51072135    -0.47600
C564        C  0.94298893  0.44140709  0.40099626     0.41700
N565        N  0.97806575  0.55667363  0.41046976     0.00600
N566        N  0.98012184  0.45923922  0.50928682    -0.26300
N567        N  0.05238719  0.48250431  0.41210026    -0.26800
N568        N  0.97891144  0.48358127  0.53162739     0.00200
H569        H  0.95336102  0.41257005  0.50422850     0.06100
H570        H  0.94677901  0.55163189  0.57401507     0.06100
N571        N  0.97754690  0.58072696  0.43316024    -0.26800
N572        N  0.04966584  0.56098242  0.53076166    -0.26400
N573        N  0.98066594  0.45738411  0.43514972     0.00600
C574        C  0.08735307  0.59527773  0.39421782     0.42000
C575        C  0.07828812  0.44096558  0.51733829    -0.07700
N576        N  0.97692714  0.55892879  0.53010536    -0.26400
H577        H  0.07934999  0.55469817  0.57500292     0.06100
N578        N  0.07360602  0.56476781  0.38730697    -0.47700
H579        H  0.08469916  0.41790177  0.50436314     0.06100
C580        C  0.94108325  0.44844227  0.54690476     0.41800
C581        C  0.07471666  0.47441081  0.38870182    -0.07200
Co582      Co  0.01671125  0.45866669  0.47253475     0.73800
N583        N  0.07515447  0.48325099  0.55499537    -0.47400
C584        C  0.93816654  0.58967803  0.39581906     0.42100
N585        N  0.95865424  0.43296248  0.42946199    -0.47400
Co586      Co  0.01422564  0.52237168  0.53179872     0.73900
C587        C  0.95200339  0.56543106  0.55143531    -0.07700
C588        C  0.07053749  0.60753707  0.42420352    -0.07300
N589        N  0.98053895  0.48089734  0.41184797    -0.26800
N590        N  0.07289886  0.60744183  0.51135607    -0.47600
H591        H  0.94789822  0.62592505  0.43935815     0.06100
C592        C  0.95699475  0.43578792  0.51676675    -0.07700
Cl593      Cl  0.01499386  0.52089577  0.47122198    -0.50700
C594        C  0.09301773  0.45542429  0.54732590     0.41900
H595        H  0.95280841  0.48667395  0.36650502     0.06100
N596        N  0.95617333  0.47789652  0.55486220    -0.47400
C597        C  0.92419839  0.38662697  0.37533569    -0.02600
C598        C  0.91792392  0.42077610  0.38335306     0.07100
C599        C  0.88735884  0.43557127  0.37411379    -0.02700
C600        C  0.86481002  0.41752960  0.35410456    -0.02700
C601        C  0.87423696  0.38582146  0.34027838     0.07200
C602        C  0.90142639  0.36862777  0.35542882    -0.02900
Br603      Br  0.90492668  0.31977112  0.35434995    -0.01500
Br604      Br  0.96497928  0.36485825  0.38941603    -0.01500
Br605      Br  0.81938707  0.43394249  0.35163262    -0.01500
Br606      Br  0.87578677  0.48036622  0.38980319    -0.01500
C607        C  0.78771440  0.41564361  0.18248675    -0.02600
C608        C  0.75351347  0.41149434  0.18852462     0.07100
C609        C  0.74233395  0.41305283  0.22154010    -0.02700
C610        C  0.76560743  0.40941243  0.24747685    -0.02700
C611        C  0.79867028  0.40007650  0.23965646     0.07200
C612        C  0.81069475  0.40780482  0.20772347    -0.02900
Br613      Br  0.85773024  0.41020104  0.19939496    -0.01500
Br614      Br  0.80118901  0.43719217  0.14193888    -0.01500
Br615      Br  0.75220360  0.41541549  0.29302498    -0.01500
Br616      Br  0.69541079  0.41762783  0.23072050    -0.01500
C617        C  0.74544215  0.28168129  0.10694530    -0.02600
C618        C  0.76038139  0.31342734  0.11439318     0.07100
C619        C  0.79554175  0.31532165  0.11410461    -0.02700
C620        C  0.81507964  0.28572793  0.11133782    -0.02700
C621        C  0.79994470  0.25358613  0.11094716     0.07200
C622        C  0.76542217  0.25206203  0.10476599    -0.02900
Br623      Br  0.74675940  0.21027541  0.08918651    -0.01500
Br624      Br  0.69773557  0.27762680  0.10181659    -0.01500
Br625      Br  0.86218935  0.28955134  0.10405511    -0.01500
Br626      Br  0.81743296  0.35820505  0.11735334    -0.01500
C627        C  0.85559520  0.27056820  0.25253005    -0.02600
C628        C  0.86860761  0.30172640  0.24410636     0.07100
C629        C  0.88702977  0.30382838  0.21445599    -0.02700
C630        C  0.88778352  0.27551320  0.19246905    -0.02700
C631        C  0.86426223  0.24842471  0.19688391     0.07200
C632        C  0.84775629  0.24751886  0.22800434    -0.02900
Br633      Br  0.80965361  0.22203188  0.23934908    -0.01500
Br634      Br  0.85999277  0.25474575  0.29698854    -0.01500
Br635      Br  0.92223463  0.27466697  0.15905435    -0.01500
Br636      Br  0.91366648  0.34333745  0.20621025    -0.01500
C637        C  0.71786011  0.28082793  0.19146158    -0.02600
C638        C  0.69500747  0.30809217  0.19253277     0.07100
C639        C  0.66433900  0.30207759  0.20977214    -0.02700
C640        C  0.65767804  0.26999231  0.22501711    -0.02700
C641        C  0.68119337  0.24312180  0.22206994     0.07200
C642        C  0.70734265  0.24860577  0.19980551    -0.02900
Br643      Br  0.72478649  0.21274345  0.17409841    -0.01500
Br644      Br  0.76579496  0.28429566  0.19005699    -0.01500
Br645      Br  0.61552827  0.26352630  0.24737036    -0.01500
Br646      Br  0.63412756  0.33901930  0.21837986    -0.01500
C647        C  0.72859457  0.27663094  0.29587829    -0.02600
C648        C  0.74057047  0.24569726  0.30702062     0.07100
C649        C  0.76937285  0.24588753  0.32682833    -0.02700
C650        C  0.78813556  0.27626378  0.33006632    -0.02700
C651        C  0.78178747  0.30394264  0.30798361     0.07200
C652        C  0.75052279  0.30367908  0.29162132    -0.02900
Br653      Br  0.73530529  0.33805761  0.26255571    -0.01500
Br654      Br  0.68158886  0.28529691  0.29928408    -0.01500
Br655      Br  0.82006120  0.27884095  0.36580875    -0.01500
Br656      Br  0.78139920  0.20583019  0.35106576    -0.01500
C657        C  0.74045948  0.14050236  0.20063166    -0.02600
C658        C  0.74928164  0.14854204  0.23344712     0.07100
C659        C  0.78312980  0.14639206  0.24213453    -0.02700
C660        C  0.80768753  0.14824114  0.21701258    -0.02700
C661        C  0.79754084  0.15343646  0.18394821     0.07200
C662        C  0.76502606  0.14306720  0.17544918    -0.02900
Br663      Br  0.75442013  0.13322933  0.13013892    -0.01500
Br664      Br  0.69461869  0.13035490  0.19009770    -0.01500
Br665      Br  0.85427914  0.14832260  0.22856673    -0.01500
Br666      Br  0.79538341  0.14401670  0.28805306    -0.01500
C667        C  0.90982637  0.13495257  0.11887506    -0.02600
C668        C  0.89449808  0.16388052  0.10437361     0.07100
C669        C  0.90597125  0.17341895  0.07233118    -0.02700
C670        C  0.92389163  0.15002784  0.05247927    -0.02700
C671        C  0.93315912  0.11820739  0.06530681     0.07200
C672        C  0.92757169  0.11158305  0.09921847    -0.02900
Br673      Br  0.94285926  0.06986669  0.11926271    -0.01500
Br674      Br  0.91015271  0.12829712  0.16626560    -0.01500
Br675      Br  0.93856904  0.16267548  0.00862196    -0.01500
Br676      Br  0.90678174  0.22039996  0.05912907    -0.01500
C677        C  0.87112261  0.91779235  0.84395093    -0.02600
C678        C  0.88164847  0.88685475  0.82878813     0.07100
C679        C  0.91116831  0.87156992  0.84155162    -0.02700
C680        C  0.93242657  0.88992672  0.86298863    -0.02700
C681        C  0.92394233  0.92289237  0.87311662     0.07200
C682        C  0.89332723  0.93689610  0.86323399    -0.02900
Br683      Br  0.88192916  0.98305770  0.87489376    -0.01500
Br684      Br  0.82474401  0.93183928  0.84508819    -0.01500
Br685      Br  0.97259588  0.86945437  0.88010838    -0.01500
Br686      Br  0.91974744  0.82380495  0.83650004    -0.01500
C687        C  0.78229303  0.90804488  0.67961983    -0.02600
C688        C  0.74842497  0.90334148  0.68785547     0.07100
C689        C  0.73872265  0.90813449  0.72109390    -0.02700
C690        C  0.76343334  0.90991159  0.74570246    -0.02700
C691        C  0.79630289  0.90103078  0.73758340     0.07200
C692        C  0.80670301  0.90545768  0.70463774    -0.02900
Br693      Br  0.85365441  0.90790165  0.69441907    -0.01500
Br694      Br  0.79424183  0.92104977  0.63550972    -0.01500
Br695      Br  0.75521127  0.93321433  0.78672664    -0.01500
Br696      Br  0.69243329  0.91205116  0.73295106    -0.01500
C697        C  0.79523367  0.77963781  0.60464704    -0.02600
C698        C  0.77922763  0.74803216  0.60826654     0.07100
C699        C  0.74423056  0.74668160  0.60485600    -0.02700
C700        C  0.72514734  0.77688095  0.60619365    -0.02700
C701        C  0.74151336  0.80846999  0.60985586     0.07200
C702        C  0.77609771  0.80960615  0.60385150    -0.02900
Br703      Br  0.79618188  0.85112488  0.58976519    -0.01500
Br704      Br  0.84319131  0.78233866  0.60167312    -0.01500
Br705      Br  0.67707053  0.77438035  0.60622514    -0.01500
Br706      Br  0.72285821  0.70363233  0.59887879    -0.01500
C707        C  0.82230523  0.76219177  0.70200994    -0.02600
C708        C  0.84863849  0.74246384  0.69058898     0.07100
C709        C  0.87998874  0.74855683  0.70666196    -0.02700
C710        C  0.88272701  0.77662031  0.72951441    -0.02700
C711        C  0.85652981  0.80149559  0.73081076     0.07200
C712        C  0.82964080  0.79526441  0.70974553    -0.02900
Br713      Br  0.81635678  0.82869592  0.67876453    -0.01500
Br714      Br  0.79885646  0.74106586  0.73783570    -0.01500
Br715      Br  0.92107855  0.77885094  0.75793165    -0.01500
Br716      Br  0.91665269  0.71722158  0.70271363    -0.01500
C717        C  0.85568170  0.62709073  0.57697685    -0.02600
C718        C  0.86657528  0.65748324  0.59267863     0.07100
C719        C  0.89798802  0.67085822  0.58274839    -0.02700
C720        C  0.92104692  0.65022557  0.56588273    -0.02700
C721        C  0.91179153  0.61752075  0.55559684     0.07200
C722        C  0.87874868  0.60649518  0.55996655    -0.02900
Br723      Br  0.86488032  0.56365820  0.54133341    -0.01500
Br724      Br  0.80873681  0.61577305  0.57328159    -0.01500
Br725      Br  0.96581744  0.66665956  0.55793821    -0.01500
Br726      Br  0.90783304  0.71872705  0.58536770    -0.01500
C727        C  0.68686229  0.74804074  0.70689497    -0.02600
C728        C  0.66784325  0.74875240  0.73557808     0.07100
C729        C  0.64855667  0.77850187  0.74084871    -0.02700
C730        C  0.65403680  0.80782368  0.72046498    -0.02700
C731        C  0.68060119  0.80829697  0.69668745     0.07200
C732        C  0.69824619  0.77764954  0.69271780    -0.02900
Br733      Br  0.74400340  0.77417517  0.68181523    -0.01500
Br734      Br  0.69437522  0.70694043  0.68373711    -0.01500
Br735      Br  0.62797178  0.84783596  0.72870972    -0.01500
Br736      Br  0.61198731  0.77804352  0.77199477    -0.01500
C737        C  0.77412393  0.65799854  0.74610007    -0.02600
C738        C  0.73950307  0.65639068  0.74139787     0.07100
C739        C  0.72781091  0.64174939  0.71171982    -0.02700
C740        C  0.74912191  0.64144386  0.68368143    -0.02700
C741        C  0.78210984  0.65341232  0.68681430     0.07200
C742        C  0.79567564  0.65642058  0.71870909    -0.02900
Br743      Br  0.84333500  0.65833745  0.72473116    -0.01500
Br744      Br  0.79174596  0.65841777  0.78987435    -0.01500
Br745      Br  0.73343624  0.62567165  0.64148131    -0.01500
Br746      Br  0.68287343  0.62433864  0.70903950    -0.01500
C747        C  0.72858252  0.78364163  0.81168042    -0.02600
C748        C  0.74088766  0.75080433  0.81587342     0.07100
C749        C  0.77412254  0.74708769  0.82654001    -0.02700
C750        C  0.79689034  0.77422852  0.82273882    -0.02700
C751        C  0.78538046  0.80605318  0.81120814     0.07200
C752        C  0.75065972  0.81103157  0.80858743    -0.02900
Br753      Br  0.73249239  0.85516010  0.80293550    -0.01500
Br754      Br  0.68170937  0.79156606  0.81724146    -0.01500
Br755      Br  0.84345156  0.76689919  0.83231916    -0.01500
Br756      Br  0.78558900  0.70921902  0.85408545    -0.01500
C757        C  0.90497393  0.90829500  0.11876456    -0.02600
C758        C  0.89368209  0.87560044  0.10932292     0.07100
C759        C  0.90736001  0.86171385  0.07962204    -0.02700
C760        C  0.92460784  0.88273007  0.05691304    -0.02700
C761        C  0.93050828  0.91695692  0.06455048     0.07200
C762        C  0.92059090  0.92961875  0.09559335    -0.02900
Br763      Br  0.92751730  0.97673069  0.10647950    -0.01500
Br764      Br  0.90793621  0.92141265  0.16473669    -0.01500
Br765      Br  0.94133447  0.86451556  0.01568951    -0.01500
Br766      Br  0.90918876  0.81327613  0.07250673    -0.01500
C767        C  0.78210824  0.72721506  0.13190219    -0.02600
C768        C  0.75036823  0.73621029  0.12025411     0.07100
C769        C  0.74795464  0.76609498  0.10094251    -0.02700
C770        C  0.77384689  0.79077259  0.10260615    -0.02700
C771        C  0.80233376  0.78453692  0.12244967     0.07200
C772        C  0.80809553  0.75096487  0.13210239    -0.02900
Br773      Br  0.85283791  0.73559374  0.13733923    -0.01500
Br774      Br  0.79153768  0.68107895  0.14244416    -0.01500
Br775      Br  0.77117734  0.83121676  0.07613064    -0.01500
Br776      Br  0.70967934  0.77353777  0.07291832    -0.01500
C777        C  0.75524997  0.64216627  0.20562808    -0.02600
C778        C  0.72499470  0.65996594  0.20654569     0.07100
C779        C  0.71607089  0.67563385  0.23581982    -0.02700
C780        C  0.74069094  0.68654807  0.25750147    -0.02700
C781        C  0.77321993  0.67233029  0.25613070     0.07200
C782        C  0.77943039  0.64774791  0.23074164    -0.02900
Br783      Br  0.82162441  0.62468623  0.22657718    -0.01500
Br784      Br  0.76097764  0.60775463  0.17219217    -0.01500
Br785      Br  0.72866744  0.72607074  0.28135806    -0.01500
Br786      Br  0.66966944  0.67918749  0.24683766    -0.01500
C787        C  0.85556190  0.78165830  0.25885655    -0.02600
C788        C  0.86065338  0.74646088  0.25435467     0.07100
C789        C  0.88091855  0.73660485  0.22679850    -0.02700
C790        C  0.89187681  0.76116394  0.20344024    -0.02700
C791        C  0.88153125  0.79486327  0.20663609     0.07200
C792        C  0.86986913  0.80500702  0.23728948    -0.02900
Br793      Br  0.88772023  0.84599277  0.25489195    -0.01500
Br794      Br  0.82624205  0.80115834  0.29033058    -0.01500
Br795      Br  0.92634724  0.75124678  0.17141959    -0.01500
Br796      Br  0.89013268  0.69004160  0.21722164    -0.01500
C797        C  0.85868097  0.63424558  0.36904283    -0.02600
C798        C  0.86762237  0.64605520  0.33688755     0.07100
C799        C  0.89608835  0.63102966  0.32190731    -0.02700
C800        C  0.91953201  0.61323069  0.34117716    -0.02700
C801        C  0.91314212  0.60710889  0.37498283     0.07200
C802        C  0.88219442  0.61686352  0.38863523    -0.02900
Br803      Br  0.87144201  0.60577878  0.43410333    -0.01500
Br804      Br  0.81279940  0.63518044  0.38433772    -0.01500
Br805      Br  0.96144404  0.59956661  0.32130739    -0.01500
Br806      Br  0.90015270  0.62782568  0.27458692    -0.01500
C807        C  0.64631655  0.75483600  0.22140751    -0.02600
C808        C  0.66740829  0.75592699  0.19332532     0.07100
C809        C  0.69132957  0.78109830  0.19276767    -0.02700
C810        C  0.70456302  0.79337454  0.22193141    -0.02700
C811        C  0.68448761  0.79407073  0.25086370     0.07200
C812        C  0.65397845  0.77508744  0.24977840    -0.02900
Br813      Br  0.62515759  0.77185975  0.28798233    -0.01500
Br814      Br  0.60542939  0.72928240  0.21937174    -0.01500
Br815      Br  0.75249779  0.79390947  0.22084191    -0.01500
Br816      Br  0.70140669  0.80313756  0.15234074    -0.01500
C817        C  0.78977784  0.88479670  0.25697208    -0.02600
C818        C  0.75649250  0.87427648  0.25236583     0.07100
C819        C  0.74406884  0.87409958  0.21959264    -0.02700
C820        C  0.76676308  0.87268829  0.19270310    -0.02700
C821        C  0.80128471  0.87378809  0.19859842     0.07200
C822        C  0.81167858  0.88644978  0.22948163    -0.02900
Br823      Br  0.85013651  0.91542054  0.23108341    -0.01500
Br824      Br  0.80397226  0.90083200  0.29950270    -0.01500
Br825      Br  0.75137466  0.87418517  0.14793163    -0.01500
Br826      Br  0.69671637  0.87677260  0.21157064    -0.01500
C827        C  0.77827859  0.80473180  0.35754683    -0.02600
C828        C  0.74466927  0.79950377  0.34880761     0.07100
C829        C  0.73170124  0.76652843  0.35203223    -0.02700
C830        C  0.75401500  0.73884544  0.35236820    -0.02700
C831        C  0.78821475  0.74514701  0.34779739     0.07200
C832        C  0.80030026  0.77680169  0.35806375    -0.02900
Br833      Br  0.84635550  0.78159680  0.37091062    -0.01500
Br834      Br  0.79356235  0.84935397  0.36824161    -0.01500
Br835      Br  0.73856934  0.69297455  0.35803593    -0.01500
Br836      Br  0.68426583  0.75960767  0.35426566    -0.01500
C837        C  0.12839390  0.86483313  0.84963913    -0.02600
C838        C  0.15886750  0.87740868  0.83611070     0.07100
C839        C  0.16976597  0.90977452  0.84742309    -0.02700
C840        C  0.14720569  0.93207021  0.86288021    -0.02700
C841        C  0.11529571  0.92072026  0.87237367     0.07200
C842        C  0.10641540  0.88676378  0.86676761    -0.02900
Br843      Br  0.06512073  0.86974376  0.88504191    -0.01500
Br844      Br  0.11920834  0.81678917  0.85153912    -0.01500
Br845      Br  0.16024692  0.97857370  0.87053651    -0.01500
Br846      Br  0.21673419  0.92151894  0.84991242    -0.01500
C847        C  0.19152401  0.75388122  0.74088308    -0.02600
C848        C  0.17712621  0.78659633  0.74353936     0.07100
C849        C  0.15462184  0.79591002  0.71740435    -0.02700
C850        C  0.15496406  0.77731136  0.68705263    -0.02700
C851        C  0.17276207  0.74664359  0.68523360     0.07200
C852        C  0.18369706  0.73284625  0.71462398    -0.02900
Br853      Br  0.16802149  0.68850347  0.72525068    -0.01500
Br854      Br  0.22389049  0.73464386  0.76909979    -0.01500
Br855      Br  0.12772720  0.79065984  0.65020608    -0.01500
Br856      Br  0.12121665  0.83067613  0.72242528    -0.01500
C857        C  0.14653934  0.60878599  0.56294380    -0.02600
C858        C  0.11421605  0.62096631  0.55609677     0.07100
C859        C  0.10640503  0.65496195  0.56300028    -0.02700
C860        C  0.13014415  0.67614815  0.57806828    -0.02700
C861        C  0.16083227  0.66263175  0.59008549     0.07200
C862        C  0.17037584  0.63005436  0.57821297    -0.02900
Br863      Br  0.21685994  0.61730418  0.57407648    -0.01500
Br864      Br  0.15879500  0.56350116  0.54934128    -0.01500
Br865      Br  0.12173743  0.72448762  0.57684220    -0.01500
Br866      Br  0.06242307  0.67255405  0.55329648    -0.01500
C867        C  0.30058109  0.77504863  0.57693170    -0.02600
C868        C  0.29026531  0.80879778  0.58141660     0.07100
C869        C  0.25623572  0.81616599  0.57921765    -0.02700
C870        C  0.23289819  0.79053393  0.58588118    -0.02700
C871        C  0.24413950  0.75701211  0.58983451     0.07200
C872        C  0.27660434  0.74893744  0.57874176    -0.02900
Br873      Br  0.28803993  0.70284513  0.56749353    -0.01500
Br874      Br  0.34722999  0.76499848  0.57109494    -0.01500
Br875      Br  0.18633742  0.80112712  0.58820148    -0.01500
Br876      Br  0.24313286  0.86069652  0.56539429    -0.01500
C877        C  0.24792219  0.87740352  0.68369116    -0.02600
C878        C  0.28298233  0.87467701  0.68396671     0.07100
C879        C  0.29947783  0.87638920  0.71500523    -0.02700
C880        C  0.28076928  0.87466240  0.74474183    -0.02700
C881        C  0.24607107  0.86933183  0.74377339     0.07200
C882        C  0.22959809  0.87542435  0.71352713    -0.02900
Br883      Br  0.18293947  0.88623374  0.71333987    -0.01500
Br884      Br  0.22500067  0.88587703  0.64294229    -0.01500
Br885      Br  0.30144080  0.88511783  0.78633090    -0.01500
Br886      Br  0.34742879  0.88013312  0.71757638    -0.01500
C887        C  0.26751119  0.65389024  0.73341691    -0.02600
C888        C  0.29854204  0.67053940  0.73381220     0.07100
C889        C  0.31037040  0.68366113  0.70402457    -0.02700
C890        C  0.28809715  0.69195118  0.67867220    -0.02700
C891        C  0.25535812  0.67820835  0.67826053     0.07200
C892        C  0.24733682  0.65498881  0.70438473    -0.02900
Br893      Br  0.21158832  0.62245047  0.70075080    -0.01500
Br894      Br  0.25459892  0.62723209  0.77113683    -0.01500
Br895      Br  0.30474000  0.72300939  0.64667898    -0.01500
Br896      Br  0.35740503  0.68138887  0.69490231    -0.01500
C897        C  0.26250516  0.72858803  0.83887827    -0.02600
C898        C  0.29629179  0.73761063  0.83482708     0.07100
C899        C  0.30562451  0.77057804  0.84467074    -0.02700
C900        C  0.28103213  0.79628500  0.84558175    -0.02700
C901        C  0.24814142  0.78825773  0.83662937     0.07200
C902        C  0.23807457  0.75443253  0.84095893    -0.02900
Br903      Br  0.19154838  0.74411184  0.84800089    -0.01500
Br904      Br  0.25016090  0.68170016  0.84066459    -0.01500
Br905      Br  0.29163209  0.84157210  0.85913393    -0.01500
Br906      Br  0.35167197  0.78164639  0.85225266    -0.01500
C907        C  0.38399146  0.75688494  0.71330905    -0.02600
C908        C  0.36002984  0.75642526  0.73957472     0.07100
C909        C  0.33382286  0.77933515  0.73679440    -0.02700
C910        C  0.32385646  0.79203243  0.70660513    -0.02700
C911        C  0.34741873  0.79514634  0.68051012     0.07200
C912        C  0.37802149  0.77695341  0.68431816    -0.02900
Br913      Br  0.40912411  0.77394154  0.64775903    -0.01500
Br914      Br  0.42565734  0.73249762  0.71632625    -0.01500
Br915      Br  0.27574047  0.79369762  0.70346876    -0.01500
Br916      Br  0.31520554  0.80008979  0.77464230    -0.01500
C917        C  0.92219100  0.10755551  0.83892724    -0.02600
C918        C  0.91921784  0.11006302  0.87405342     0.07100
C919        C  0.89183732  0.12833168  0.88719146    -0.02700
C920        C  0.86716491  0.14117791  0.86618837    -0.02700
C921        C  0.87347943  0.14477927  0.83194888     0.07200
C922        C  0.89927915  0.12466245  0.81813059    -0.02900
Br923      Br  0.90119979  0.11730012  0.77078250    -0.01500
Br924      Br  0.95743913  0.08170656  0.81787719    -0.01500
Br925      Br  0.82204196  0.14267528  0.88336890    -0.01500
Br926      Br  0.88890278  0.14110697  0.93324437    -0.01500
C927        C  0.75328745  0.19271251  0.74696626    -0.02600
C928        C  0.78386907  0.17459069  0.74523852     0.07100
C929        C  0.78540142  0.14760604  0.72150281    -0.02700
C930        C  0.75943360  0.14394764  0.69749659    -0.02700
C931        C  0.73035168  0.16392053  0.70009701     0.07200
C932        C  0.72577266  0.18156614  0.72933637    -0.02900
Br933      Br  0.68184271  0.18802468  0.74667061    -0.01500
Br934      Br  0.74813504  0.23847068  0.76095313    -0.01500
Br935      Br  0.76267312  0.11116708  0.66226111    -0.01500
Br936      Br  0.82347048  0.11792850  0.71861576    -0.01500
C937        C  0.77222596  0.29570139  0.60627430    -0.02600
C938        C  0.79425454  0.29302965  0.63412023     0.07100
C939        C  0.79586689  0.26066280  0.64942608    -0.02700
C940        C  0.78058437  0.23288308  0.63486444    -0.02700
C941        C  0.75260138  0.23760665  0.61543105     0.07200
C942        C  0.75056875  0.26832548  0.59793924    -0.02900
Br943      Br  0.71920952  0.27214956  0.56209011    -0.01500
Br944      Br  0.76628332  0.33733020  0.58249926    -0.01500
Br945      Br  0.79797968  0.18836400  0.64125586    -0.01500
Br946      Br  0.80433787  0.25276726  0.69503497    -0.01500
C947        C  0.89186067  0.29859684  0.73445505    -0.02600
C948        C  0.88055694  0.29390725  0.70177460     0.07100
C949        C  0.88070826  0.26063079  0.68903240    -0.02700
C950        C  0.87957274  0.23303679  0.71136066    -0.02700
C951        C  0.88121417  0.23915983  0.74565713     0.07200
C952        C  0.89337458  0.27065176  0.75615218    -0.02900
Br953      Br  0.91693974  0.27324316  0.79740545    -0.01500
Br954      Br  0.90851986  0.34177505  0.74810606    -0.01500
Br955      Br  0.87379816  0.18763735  0.69550724    -0.01500
Br956      Br  0.87955086  0.25311613  0.64188154    -0.01500
C957        C  0.86808438  0.40170732  0.58544217    -0.02600
C958        C  0.88258408  0.38784009  0.61465302     0.07100
C959        C  0.91453298  0.40068617  0.62409367    -0.02700
C960        C  0.93395639  0.41937555  0.60142265    -0.02700
C961        C  0.92088038  0.42826321  0.57031387     0.07200
C962        C  0.88774992  0.41996593  0.56259198    -0.02900
Br963      Br  0.86864418  0.43585362  0.52145810    -0.01500
Br964      Br  0.82040722  0.40393313  0.57970321    -0.01500
Br965      Br  0.97893626  0.43256751  0.61310781    -0.01500
Br966      Br  0.93030714  0.39935696  0.66947824    -0.01500
C967        C  0.64562053  0.25398075  0.71437670    -0.02600
C968        C  0.66516458  0.25725996  0.68555014     0.07100
C969        C  0.68497839  0.28572622  0.68270999    -0.02700
C970        C  0.69700711  0.30136573  0.71096331    -0.02700
C971        C  0.67968937  0.29832529  0.74150168     0.07200
C972        C  0.65195283  0.27534902  0.74212563    -0.02900
Br973      Br  0.62528207  0.26861106  0.78142631    -0.01500
Br974      Br  0.60942045  0.22177278  0.71470182    -0.01500
Br975      Br  0.74250641  0.31357104  0.70628011    -0.01500
Br976      Br  0.69279721  0.30523781  0.64006406    -0.01500
C977        C  0.80621570  0.28126185  0.83640207    -0.02600
C978        C  0.79743964  0.24760259  0.82931559     0.07100
C979        C  0.76405208  0.23757322  0.83509766    -0.02700
C980        C  0.73877444  0.26257051  0.83639362    -0.02700
C981        C  0.74761464  0.29703572  0.83432922     0.07200
C982        C  0.78104177  0.30587690  0.83968242    -0.02900
Br983      Br  0.79111995  0.35003105  0.85618423    -0.01500
Br984      Br  0.85166402  0.29289174  0.84515375    -0.01500
Br985      Br  0.69251571  0.24968549  0.83788982    -0.01500
Br986      Br  0.75247229  0.19016651  0.83664473    -0.01500
C987        C  0.78208803  0.39502490  0.76472903    -0.02600
C988        C  0.74902085  0.38719972  0.75609910     0.07100
C989        C  0.74012529  0.39014844  0.72250475    -0.02700
C990        C  0.76538545  0.38888010  0.69801505    -0.02700
C991        C  0.79894570  0.38464394  0.70768045     0.07200
C992        C  0.80743521  0.39298990  0.74045444    -0.02900
Br993      Br  0.85237245  0.40585899  0.75066886    -0.01500
Br994      Br  0.79041131  0.41658522  0.80639232    -0.01500
Br995      Br  0.75378486  0.38972749  0.65191756    -0.01500
Br996      Br  0.69378924  0.39225838  0.71009850    -0.01500
C997        C  0.66674961  0.14037992  0.34646795    -0.02600
C998        C  0.65445545  0.15225054  0.31535207     0.07100
C999        C  0.62286793  0.13953225  0.30487555    -0.02700
C1000       C  0.60252000  0.12112961  0.32728314    -0.02700
C1001       C  0.61276595  0.11586677  0.36018338     0.07200
C1002       C  0.64507006  0.12562826  0.36968936    -0.02900
Br1003     Br  0.66008794  0.11934583  0.41482745    -0.01500
Br1004     Br  0.71415241  0.13745594  0.35612990    -0.01500
Br1005     Br  0.56231908  0.09935440  0.31215664    -0.01500
Br1006     Br  0.60911452  0.14069837  0.25901542    -0.01500
C1007       C  0.60095482  0.93241908  0.59758948    -0.02600
C1008       C  0.61083969  0.94001626  0.56500289     0.07100
C1009       C  0.64297877  0.93086062  0.55430740    -0.02700
C1010       C  0.66496343  0.91420082  0.57592315    -0.02700
C1011       C  0.65328522  0.90079939  0.60679748     0.07200
C1012       C  0.62171248  0.91276220  0.61846240    -0.02900
Br1013     Br  0.60804707  0.90840404  0.66412510    -0.01500
Br1014     Br  0.56041577  0.95246433  0.61454477    -0.01500
Br1015     Br  0.71204947  0.91570147  0.56408455    -0.01500
Br1016     Br  0.65719321  0.94043014  0.50951929    -0.01500
C1017       C  0.60620821  0.92041280  0.34062179    -0.02600
C1018       C  0.61668418  0.93293792  0.37153664     0.07100
C1019       C  0.65066194  0.93031731  0.38036621    -0.02700
C1020       C  0.67313437  0.91280848  0.35981361    -0.02700
C1021       C  0.66135417  0.89446912  0.33183269     0.07200
C1022       C  0.62874871  0.90238045  0.32014419    -0.02900
Br1023     Br  0.61723041  0.89784400  0.27391159    -0.01500
Br1024     Br  0.56169090  0.93074633  0.32513608    -0.01500
Br1025     Br  0.72052151  0.91697334  0.36923563    -0.01500
Br1026     Br  0.66699038  0.94910745  0.42147855    -0.01500
C1027       C  0.40983128  0.90395467  0.61143821    -0.02600
C1028       C  0.37575239  0.89922523  0.60297087     0.07100
C1029       C  0.36270629  0.91952516  0.57678626    -0.02700
C1030       C  0.38419702  0.93642250  0.55477044    -0.02700
C1031       C  0.41878884  0.93790544  0.56119791     0.07200
C1032       C  0.43137277  0.92177998  0.58974046    -0.02900
Br1033     Br  0.47834584  0.92425582  0.59946180    -0.01500
Br1034     Br  0.42565845  0.89581038  0.65584938    -0.01500
Br1035     Br  0.36579954  0.95305007  0.51348194    -0.01500
Br1036     Br  0.31498649  0.92607833  0.57094725    -0.01500
C1037       C  0.61169289  0.11484976  0.58984219    -0.02600
C1038       C  0.60686945  0.12686311  0.55740715     0.07100
C1039       C  0.61902386  0.15895691  0.54838687    -0.02700
C1040       C  0.63744164  0.17815226  0.57126486    -0.02700
C1041       C  0.64722826  0.16374343  0.60206202     0.07200
C1042       C  0.62985314  0.13429847  0.61277303    -0.02900
Br1043     Br  0.62305261  0.12463332  0.65932752    -0.01500
Br1044     Br  0.59248460  0.07207138  0.60327724    -0.01500
Br1045     Br  0.64311759  0.22582673  0.56203537    -0.01500
Br1046     Br  0.61250593  0.17593928  0.50393703    -0.01500
C1047       C  0.37873723  0.91835992  0.33069393    -0.02600
C1048       C  0.38295114  0.88264788  0.33146886     0.07100
C1049       C  0.40519111  0.86930000  0.35578061    -0.02700
C1050       C  0.42499119  0.89099485  0.37538748    -0.02700
C1051       C  0.42436426  0.92641459  0.37004309     0.07200
C1052       C  0.40185458  0.93965121  0.34649077    -0.02900
Br1053     Br  0.40298859  0.98683684  0.33357349    -0.01500
Br1054     Br  0.33667277  0.93928105  0.31948253    -0.01500
Br1055     Br  0.45140996  0.87124867  0.41068006    -0.01500
Br1056     Br  0.40738384  0.82124670  0.36523629    -0.01500
C1057       C  0.28911409  0.72711688  0.33084133    -0.02600
C1058       C  0.25538033  0.73155288  0.32229237     0.07100
C1059       C  0.24197962  0.76473559  0.32434229    -0.02700
C1060       C  0.26384736  0.79287264  0.32422863    -0.02700
C1061       C  0.29850381  0.78750419  0.32271854     0.07200
C1062       C  0.31039841  0.75550816  0.33219566    -0.02900
Br1063     Br  0.35143402  0.75317795  0.35611872    -0.01500
Br1064     Br  0.30478132  0.68358783  0.34500573    -0.01500
Br1065     Br  0.24700641  0.83809257  0.32845889    -0.01500
Br1066     Br  0.19442908  0.77202023  0.32568191    -0.01500
C1067       C  0.14940144  0.66206225  0.36510302    -0.02600
C1068       C  0.15403538  0.65422590  0.33113001     0.07100
C1069       C  0.13180623  0.63019967  0.31693394    -0.02700
C1070       C  0.11027910  0.61065198  0.33721453    -0.02700
C1071       C  0.11062032  0.61472203  0.37217300     0.07200
C1072       C  0.13145012  0.64003229  0.38580091    -0.02900
Br1073     Br  0.13947858  0.64349407  0.43290969    -0.01500
Br1074     Br  0.15627981  0.70732985  0.38208357    -0.01500
Br1075     Br  0.08060161  0.57863513  0.31599539    -0.01500
Br1076     Br  0.12813064  0.62567477  0.26932203    -0.01500
C1077       C  0.19751557  0.79816664  0.22723600    -0.02600
C1078       C  0.17534486  0.79744160  0.20096240     0.07100
C1079       C  0.15377243  0.76926136  0.19920892    -0.02700
C1080       C  0.15929932  0.74061802  0.22018725    -0.02700
C1081       C  0.18823647  0.73908643  0.24093790     0.07200
C1082       C  0.20870752  0.76837177  0.24149645    -0.02900
Br1083     Br  0.25607778  0.76872835  0.24762953    -0.01500
Br1084     Br  0.20610682  0.83974436  0.24914839    -0.01500
Br1085     Br  0.13012642  0.70219114  0.21566907    -0.01500
Br1086     Br  0.11592372  0.77084712  0.16986099    -0.01500
C1087       C  0.25606197  0.88590006  0.20681920    -0.02600
C1088       C  0.26135572  0.86839372  0.17701872     0.07100
C1089       C  0.29306131  0.85506840  0.17116439    -0.02700
C1090       C  0.31522792  0.84957676  0.19753855    -0.02700
C1091       C  0.30681602  0.85985372  0.22998836     0.07200
C1092       C  0.27853449  0.88136863  0.23359290    -0.02900
Br1093     Br  0.26906746  0.90364890  0.27484435    -0.01500
Br1094     Br  0.21856209  0.91634509  0.21023926    -0.01500
Br1095     Br  0.35781199  0.83108708  0.18756003    -0.01500
Br1096     Br  0.30808477  0.85229678  0.12625765    -0.01500
C1097       C  0.16546423  0.87854789  0.06403801    -0.02600
C1098       C  0.16189033  0.87749533  0.09922220     0.07100
C1099       C  0.14037155  0.90206932  0.11389670    -0.02700
C1100       C  0.12019761  0.92329375  0.09401441    -0.02700
C1101       C  0.11986581  0.91949690  0.05911260     0.07200
C1102       C  0.14228385  0.89628258  0.04443980    -0.02900
Br1103     Br  0.14161897  0.88726107  0.99724824    -0.01500
Br1104     Br  0.20641562  0.86563225  0.04160138    -0.01500
Br1105     Br  0.09550886  0.95956150  0.11527663    -0.01500
Br1106     Br  0.14079473  0.91055238  0.16118084    -0.01500
C1107       C  0.39651881  0.75458209  0.20354169    -0.02600
C1108       C  0.37482560  0.72722255  0.21224024     0.07100
C1109       C  0.36635204  0.72364513  0.24607129    -0.02700
C1110       C  0.37870701  0.74631906  0.26937420    -0.02700
C1111       C  0.38895525  0.77802739  0.25877466     0.07200
C1112       C  0.40376487  0.77993217  0.22739185    -0.02900
Br1113     Br  0.43494112  0.81607534  0.21885401    -0.01500
Br1114     Br  0.41334770  0.76062785  0.15918593    -0.01500
Br1115     Br  0.40696905  0.72623207  0.30224164    -0.01500
Br1116     Br  0.34022704  0.68779529  0.26343382    -0.01500
C1117       C  0.23851564  0.63275547  0.21316481    -0.02600
C1118       C  0.24715749  0.63536095  0.24689150     0.07100
C1119       C  0.27937632  0.62485155  0.25621235    -0.02700
C1120       C  0.30483137  0.62340456  0.23198333    -0.02700
C1121       C  0.29756267  0.63418531  0.19966738     0.07200
C1122       C  0.26424774  0.63174147  0.18911441    -0.02900
Br1123     Br  0.25445972  0.63103562  0.14240842    -0.01500
Br1124     Br  0.19244280  0.63479854  0.20006315    -0.01500
Br1125     Br  0.34851436  0.60563893  0.24178318    -0.01500
Br1126     Br  0.28758675  0.61126695  0.30103678    -0.01500
C1127       C  0.27109072  0.77734828  0.10011187    -0.02600
C1128       C  0.23891027  0.77409707  0.11317331     0.07100
C1129       C  0.23140820  0.74518919  0.13108456    -0.02700
C1130       C  0.25697129  0.72661960  0.14585523    -0.02700
C1131       C  0.29059893  0.73066828  0.13561575     0.07200
C1132       C  0.29721847  0.75665174  0.11205904    -0.02900
Br1133     Br  0.34195618  0.77027978  0.10193938    -0.01500
Br1134     Br  0.27747175  0.80714480  0.06291539    -0.01500
Br1135     Br  0.24449706  0.70695837  0.18653380    -0.01500
Br1136     Br  0.18570743  0.73105171  0.13428904    -0.01500
C1137       C  0.60675586  0.42389769  0.09843377    -0.02600
C1138       C  0.61234601  0.42947479  0.06452317     0.07100
C1139       C  0.64330644  0.42037450  0.05053154    -0.02700
C1140       C  0.66894231  0.40705844  0.07049382    -0.02700
C1141       C  0.66228880  0.39698759  0.10381758     0.07200
C1142       C  0.63168644  0.40857895  0.11820066    -0.02900
Br1143     Br  0.62539803  0.41037054  0.16560866    -0.01500
Br1144     Br  0.56550008  0.43956307  0.11812729    -0.01500
Br1145     Br  0.71402202  0.41234707  0.05362320    -0.01500
Br1146     Br  0.65108043  0.42669403  0.00356213    -0.01500
C1147       C  0.64413430  0.62637871  0.88108699    -0.02600
C1148       C  0.61288024  0.61497649  0.87020418     0.07100
C1149       C  0.60177124  0.62307663  0.83822342    -0.02700
C1150       C  0.62117905  0.64407646  0.81749919    -0.02700
C1151       C  0.65160128  0.65856540  0.82939208     0.07200
C1152       C  0.66453635  0.64553124  0.85984668    -0.02900
Br1153     Br  0.71172078  0.64614730  0.87065507    -0.01500
Br1154     Br  0.65882713  0.61682571  0.92576802    -0.01500
Br1155     Br  0.60768386  0.64687807  0.77152857    -0.01500
Br1156     Br  0.56053660  0.60339323  0.82225658    -0.01500
C1157       C  0.64393558  0.61966346  0.06003305    -0.02600
C1158       C  0.60913932  0.61692174  0.06494491     0.07100
C1159       C  0.59477679  0.63089294  0.09376616    -0.02700
C1160       C  0.61442989  0.65009918  0.11594184    -0.02700
C1161       C  0.64846640  0.65752800  0.10830052     0.07200
C1162       C  0.66365380  0.63804284  0.08255814    -0.02900
Br1163     Br  0.71164891  0.63084194  0.08043461    -0.01500
Br1164     Br  0.66540745  0.59893353  0.02205636    -0.01500
Br1165     Br  0.59572154  0.65857292  0.15937017    -0.01500
Br1166     Br  0.54875718  0.62057554  0.10472049    -0.01500
C1167       C  0.42270410  0.60425783  0.82898519    -0.02600
C1168       C  0.43371454  0.61685670  0.85979313     0.07100
C1169       C  0.43011096  0.65177305  0.86652451    -0.02700
C1170       C  0.41258969  0.67268244  0.84437607    -0.02700
C1171       C  0.39509065  0.65852167  0.81716859     0.07200
C1172       C  0.40471492  0.62543051  0.80703218    -0.02900
Br1173     Br  0.40290153  0.61236662  0.76090992    -0.01500
Br1174     Br  0.43438811  0.55872221  0.81582689    -0.01500
Br1175     Br  0.41552346  0.72110990  0.85035600    -0.01500
Br1176     Br  0.44670809  0.67154221  0.90718450    -0.01500
C1177       C  0.63290368  0.40885582  0.82045156    -0.02600
C1178       C  0.64875011  0.37990251  0.83429308     0.07100
C1179       C  0.63609378  0.36782868  0.86506479    -0.02700
C1180       C  0.61704392  0.38935100  0.88548624    -0.02700
C1181       C  0.60689816  0.42132217  0.87374002     0.07200
C1182       C  0.61298586  0.43002945  0.84051619    -0.02900
Br1183     Br  0.59252020  0.47014812  0.82216299    -0.01500
Br1184     Br  0.63401937  0.41742478  0.77335567    -0.01500
Br1185     Br  0.60564793  0.37493381  0.92989739    -0.01500
Br1186     Br  0.63682736  0.32017040  0.87631868    -0.01500
C1187       C  0.42450503  0.60125366  0.09753914    -0.02600
C1188       C  0.42672520  0.61422243  0.06522362     0.07100
C1189       C  0.41359576  0.64618475  0.05789540    -0.02700
C1190       C  0.39743656  0.66484321  0.08270794    -0.02700
C1191       C  0.38930395  0.64954852  0.11358603     0.07200
C1192       C  0.40660471  0.61918584  0.12199810    -0.02900
Br1193     Br  0.41022634  0.60384744  0.16737931    -0.01500
Br1194     Br  0.44699122  0.55934423  0.10827632    -0.01500
Br1195     Br  0.39705610  0.71301606  0.07662151    -0.01500
Br1196     Br  0.41711261  0.66436197  0.01345962    -0.01500
C1197       C  0.43907407  0.41363788  0.83925580    -0.02600
C1198       C  0.42473739  0.42834766  0.86772100     0.07100
C1199       C  0.38974013  0.42711693  0.87213810    -0.02700
C1200       C  0.36976150  0.40904409  0.84965967    -0.02700
C1201       C  0.38482858  0.38920776  0.82427603     0.07200
C1202       C  0.41883297  0.39600287  0.81656525    -0.02900
Br1203     Br  0.43611647  0.38961556  0.77224509    -0.01500
Br1204     Br  0.48615611  0.41947074  0.82995183    -0.01500
Br1205     Br  0.32185976  0.41649209  0.85143010    -0.01500
Br1206     Br  0.36845168  0.44866240  0.90980154    -0.01500
C1207       C  0.27702089  0.34201416  0.68684937    -0.02600
C1208       C  0.24708965  0.36098980  0.69006524     0.07100
C1209       C  0.24839196  0.39009750  0.71128252    -0.02700
C1210       C  0.27730225  0.39628806  0.73091044    -0.02700
C1211       C  0.30542416  0.37520090  0.72757291     0.07200
C1212       C  0.30651596  0.35407775  0.70029076    -0.02900
Br1213     Br  0.34839956  0.34360445  0.68003022    -0.01500
Br1214     Br  0.27955502  0.29502970  0.67690199    -0.01500
Br1215     Br  0.27897178  0.43357345  0.76167400    -0.01500
Br1216     Br  0.21000297  0.41872406  0.71843629    -0.01500
C1217       C  0.10899608  0.43370268  0.60372966    -0.02600
C1218       C  0.11684844  0.43862154  0.56992802     0.07100
C1219       C  0.14808291  0.42775310  0.55795839    -0.02700
C1220       C  0.16899882  0.40798980  0.57815811    -0.02700
C1221       C  0.15692722  0.39555820  0.60890144     0.07200
C1222       C  0.12957037  0.41302744  0.62346527    -0.02900
Br1223     Br  0.12229055  0.41283832  0.67091461    -0.01500
Br1224     Br  0.06979890  0.45410145  0.62340628    -0.01500
Br1225     Br  0.21577008  0.40485029  0.56657069    -0.01500
Br1226     Br  0.16324730  0.44187809  0.51475986    -0.01500
C1227       C  0.26257958  0.25156951  0.83062095    -0.02600
C1228       C  0.23881435  0.25422606  0.80420794     0.07100
C1229       C  0.23792290  0.28567499  0.78726556    -0.02700
C1230       C  0.25637393  0.31305947  0.79853520    -0.02700
C1231       C  0.28510692  0.30761696  0.81666357     0.07200
C1232       C  0.28655469  0.27785323  0.83581263    -0.02900
Br1233     Br  0.31999462  0.27439996  0.86994456    -0.01500
Br1234     Br  0.26651392  0.21104452  0.85680093    -0.01500
Br1235     Br  0.24097465  0.35827938  0.79141145    -0.01500
Br1236     Br  0.22438888  0.29154405  0.74275662    -0.01500
C1237       C  0.14882133  0.27923928  0.74778596    -0.02600
C1238       C  0.14939447  0.24525355  0.73726058     0.07100
C1239       C  0.13686547  0.23823797  0.70547028    -0.02700
C1240       C  0.13656769  0.26427719  0.68144646    -0.02700
C1241       C  0.14860840  0.29657553  0.68994775     0.07200
C1242       C  0.14923203  0.30519979  0.72375202    -0.02900
Br1243     Br  0.15336646  0.35171767  0.73683029    -0.01500
Br1244     Br  0.15039081  0.28998389  0.79431359    -0.01500
Br1245     Br  0.11365285  0.25847675  0.64018392    -0.01500
Br1246     Br  0.11290188  0.19688373  0.69815441    -0.01500
C1247       C  0.14790255  0.11451318  0.87209961    -0.02600
C1248       C  0.11318348  0.11997047  0.87602660     0.07100
C1249       C  0.09913225  0.15014430  0.86362160    -0.02700
C1250       C  0.11892127  0.17305390  0.84521066    -0.02700
C1251       C  0.15190396  0.16396580  0.83527434     0.07200
C1252       C  0.16727818  0.13697460  0.85280344    -0.02900
Br1253     Br  0.21535104  0.13235443  0.85395258    -0.01500
Br1254     Br  0.16942961  0.07532811  0.89134468    -0.01500
Br1255     Br  0.10323770  0.21931767  0.84198460    -0.01500
Br1256     Br  0.05318087  0.16145195  0.87366447    -0.01500
C1257       C  0.38254142  0.26345136  0.69188268    -0.02600
C1258       C  0.35406291  0.24148162  0.69446143     0.07100
C1259       C  0.33812563  0.24002674  0.72587866    -0.02700
C1260       C  0.35236436  0.25599444  0.75300144    -0.02700
C1261       C  0.37253166  0.28405350  0.74831007     0.07200
C1262       C  0.39043843  0.28593092  0.71835760    -0.02900
Br1263     Br  0.42555724  0.31898164  0.71405237    -0.01500
Br1264     Br  0.40845535  0.26746611  0.65170187    -0.01500
Br1265     Br  0.34552091  0.23856661  0.79657467    -0.01500
Br1266     Br  0.29258987  0.22847205  0.73349787    -0.01500
C1267       C  0.24916906  0.23320361  0.59616322    -0.02600
C1268       C  0.28223202  0.24179045  0.60382352     0.07100
C1269       C  0.29148362  0.27615677  0.60186750    -0.02700
C1270       C  0.26646647  0.30139554  0.60169239    -0.02700
C1271       C  0.23270420  0.29171469  0.60523410     0.07200
C1272       C  0.22404937  0.25804927  0.59808959    -0.02900
Br1273     Br  0.17866456  0.24664866  0.58866226    -0.01500
Br1274     Br  0.23986803  0.18962427  0.57769451    -0.01500
Br1275     Br  0.27877197  0.34858218  0.60158338    -0.01500
Br1276     Br  0.33773215  0.28881327  0.60281974    -0.01500
C1277       C  0.29176822  0.15128367  0.71893814    -0.02600
C1278       C  0.28149389  0.15439443  0.68567961     0.07100
C1279       C  0.24756698  0.14902535  0.67874141    -0.02700
C1280       C  0.22358279  0.15185619  0.70425017    -0.02700
C1281       C  0.23373304  0.15865732  0.73688781     0.07200
C1282       C  0.26772769  0.15355320  0.74474772    -0.02900
Br1283     Br  0.28175964  0.15330029  0.79018534    -0.01500
Br1284     Br  0.33866202  0.14774742  0.72895481    -0.01500
Br1285     Br  0.17747350  0.14348494  0.69526614    -0.01500
Br1286     Br  0.23522258  0.13147927  0.63637263    -0.01500
C1287       C  0.41246670  0.15898318  0.54981963    -0.02600
C1288       C  0.42241902  0.12545322  0.55613391     0.07100
C1289       C  0.41446179  0.11050706  0.58684999    -0.02700
C1290       C  0.39400116  0.12784845  0.60984109    -0.02700
C1291       C  0.37928863  0.15931297  0.60110170     0.07200
C1292       C  0.39331672  0.17661267  0.57336919    -0.02900
Br1293     Br  0.39246431  0.22545612  0.56982329    -0.01500
Br1294     Br  0.42313916  0.18071122  0.50814772    -0.01500
Br1295     Br  0.39332686  0.11201094  0.65509845    -0.01500
Br1296     Br  0.43339165  0.06701411  0.59811954    -0.01500
C1297       C  0.16423849  0.39714714  0.36501131    -0.02600
C1298       C  0.15031527  0.37949374  0.33733421     0.07100
C1299       C  0.11671687  0.38723738  0.32878457    -0.02700
C1300       C  0.09597552  0.40486355  0.35110536    -0.02700
C1301       C  0.10951905  0.41937153  0.37985177     0.07200
C1302       C  0.14362115  0.41588644  0.38653174    -0.02900
Br1303     Br  0.16232718  0.43882423  0.42442158    -0.01500
Br1304     Br  0.21208695  0.40136218  0.37142454    -0.01500
Br1305     Br  0.04882094  0.40992585  0.34176992    -0.01500
Br1306     Br  0.10129916  0.38524956  0.28377742    -0.01500
C1307       C  0.14844995  0.27439431  0.18948594    -0.02600
C1308       C  0.16887697  0.24555170  0.18748327     0.07100
C1309       C  0.18316644  0.23392887  0.21653557    -0.02700
C1310       C  0.18915908  0.25620486  0.24261209    -0.02700
C1311       C  0.17195715  0.28759747  0.24478613     0.07200
C1312       C  0.14760458  0.29362668  0.21938988    -0.02900
Br1313     Br  0.11157398  0.32529349  0.22458492    -0.01500
Br1314     Br  0.11954517  0.28502781  0.15291100    -0.01500
Br1315     Br  0.22246945  0.24106877  0.27225826    -0.01500
Br1316     Br  0.18425480  0.18605264  0.22420888    -0.01500
C1317       C  0.13803009  0.13820504  0.11078831    -0.02600
C1318       C  0.16084319  0.15964588  0.09368589     0.07100
C1319       C  0.16399887  0.15522920  0.05909993    -0.02700
C1320       C  0.13888355  0.13892666  0.04130284    -0.02700
C1321       C  0.11563960  0.11791908  0.05779573     0.07200
C1322       C  0.11565079  0.11735932  0.09296891    -0.02900
Br1323     Br  0.08577706  0.08819797  0.11773368    -0.01500
Br1324     Br  0.13980634  0.13350288  0.15853776    -0.01500
Br1325     Br  0.13577499  0.14929621  0.99458780    -0.01500
Br1326     Br  0.20688160  0.15843381  0.03716200    -0.01500
C1327       C  0.26014070  0.23566155  0.34565704    -0.02600
C1328       C  0.29401376  0.24489705  0.34303196     0.07100
C1329       C  0.30204980  0.27903862  0.34699546    -0.02700
C1330       C  0.27805558  0.30389042  0.33958594    -0.02700
C1331       C  0.24458233  0.29417975  0.33455898     0.07200
C1332       C  0.23519186  0.26102999  0.34405349    -0.02900
Br1333     Br  0.18865069  0.24950350  0.34979569    -0.01500
Br1334     Br  0.24826103  0.18858023  0.34809939    -0.01500
Br1335     Br  0.29113655  0.35036374  0.33733513    -0.01500
Br1336     Br  0.34373456  0.28997042  0.36762591    -0.01500
C1337       C  0.25380284  0.15758499  0.19934667    -0.02600
C1338       C  0.25615288  0.18354264  0.17505761     0.07100
C1339       C  0.27891992  0.20920648  0.18136637    -0.02700
C1340       C  0.28805532  0.21745420  0.21322629    -0.02700
C1341       C  0.28726196  0.19241213  0.23816273     0.07200
C1342       C  0.26981561  0.16183175  0.23069628    -0.02900
Br1343     Br  0.26175772  0.12881366  0.26505664    -0.01500
Br1344     Br  0.23024739  0.11603476  0.19040135    -0.01500
Br1345     Br  0.29084621  0.26550780  0.21997349    -0.01500
Br1346     Br  0.30307680  0.22949472  0.14649989    -0.01500
C1347       C  0.36347850  0.12930814  0.34216734    -0.02600
C1348       C  0.37723427  0.15090979  0.31765983     0.07100
C1349       C  0.41083810  0.14502403  0.30813331    -0.02700
C1350       C  0.43221498  0.12679548  0.32927786    -0.02700
C1351       C  0.41961832  0.11156458  0.35832526     0.07200
C1352       C  0.38460273  0.11115561  0.36356746    -0.02900
Br1353     Br  0.36464385  0.08888412  0.40147553    -0.01500
Br1354     Br  0.31566731  0.12300537  0.34574194    -0.01500
Br1355     Br  0.47840290  0.12138423  0.31711072    -0.01500
Br1356     Br  0.42572936  0.15299736  0.26319521    -0.01500
C1357       C  0.37297103  0.31540645  0.22577253    -0.02600
C1358       C  0.36913890  0.30343196  0.19311656     0.07100
C1359       C  0.37312801  0.26853498  0.18769287    -0.02700
C1360       C  0.37107088  0.24552856  0.21454823    -0.02700
C1361       C  0.36718278  0.25789596  0.24737383     0.07200
C1362       C  0.37220284  0.29267715  0.25274567    -0.02900
Br1363     Br  0.38140834  0.30866512  0.29648367    -0.01500
Br1364     Br  0.38342032  0.36198131  0.23348673    -0.01500
Br1365     Br  0.37228298  0.19765844  0.20556444    -0.01500
Br1366     Br  0.38670667  0.25349516  0.14451040    -0.01500
C1367       C  0.22652161  0.36733124  0.21652994    -0.02600
C1368       C  0.23647136  0.37788531  0.24747502     0.07100
C1369       C  0.26731432  0.39458479  0.25000066    -0.02700
C1370       C  0.28944135  0.39457810  0.22231603    -0.02700
C1371       C  0.28291050  0.37240837  0.19493333     0.07200
C1372       C  0.25050969  0.35783617  0.19374592    -0.02900
Br1373     Br  0.23841028  0.31681774  0.17270777    -0.01500
Br1374     Br  0.18056880  0.36998250  0.20406266    -0.01500
Br1375     Br  0.32752164  0.42429144  0.22375733    -0.01500
Br1376     Br  0.27648033  0.42071882  0.28910012    -0.01500
C1377       C  0.29739164  0.27805895  0.08469674    -0.02600
C1378       C  0.29039007  0.30932052  0.09994044     0.07100
C1379       C  0.25710890  0.32088865  0.09902811    -0.02700
C1380       C  0.23107179  0.29699489  0.09617842    -0.02700
C1381       C  0.23899876  0.26259787  0.09234314     0.07200
C1382       C  0.27121937  0.25432636  0.08065652    -0.02900
Br1383     Br  0.28031837  0.20953779  0.06403104    -0.01500
Br1384     Br  0.34227495  0.26730458  0.07141374    -0.01500
Br1385     Br  0.18518162  0.31056160  0.09993421    -0.01500
Br1386     Br  0.24715003  0.36829376  0.10462014    -0.01500
C1387       C  0.40501655  0.41601273  0.12168899    -0.02600
C1388       C  0.37372108  0.40368380  0.11059210     0.07100
C1389       C  0.36098280  0.41756538  0.08070389    -0.02700
C1390       C  0.38263588  0.43311524  0.05790755    -0.02700
C1391       C  0.41603344  0.43969331  0.06680261     0.07200
C1392       C  0.42645016  0.43313660  0.09947738    -0.02900
Br1393     Br  0.46931360  0.44942254  0.11429962    -0.01500
Br1394     Br  0.41552266  0.41700577  0.16828136    -0.01500
Br1395     Br  0.36656670  0.44271726  0.01372138    -0.01500
Br1396     Br  0.31350478  0.41953209  0.07213844    -0.01500
loop_ 
_geom_bond_atom_site_label_1 
_geom_bond_atom_site_label_2 
_geom_bond_distance 
_geom_bond_site_symmetry_2 
_ccdc_geom_bond_type 
C1            C2   1.546       .  S
C1            C7   1.542       .  S
C1            C5   1.555       .  S
C1         C1388   1.544       .  S
C2            H9   1.084       .  S
C2            C3   1.372       .  D
C3            C4   1.545       .  S
C3         C1371   1.514       .  S
C4            C8   1.556       .  S
C4            C6   1.546       .  S
C4           H10   1.095       .  S
C5           H11   1.083       .  S
C5            C6   1.367       .  D
C6         C1358   1.505       .  S
C7           H12   1.085       .  S
C7            C8   1.350       .  D
C8         C1378   1.497       .  S
C13          C14   1.547       .  S
C13          C19   1.551       .  S
C13          C17   1.546       .  S
C13        C1348   1.540       .  S
C14          H21   1.086       .  S
C14          C15   1.354       .  D
C15          C16   1.534       .  S
C15        C1328   1.489       .  S
C16          C20   1.548       .  S
C16          C18   1.542       .  S
C16          H22   1.093       .  S
C17          H23   1.084       .  S
C17          C18   1.376       .  D
C18        C1341   1.512       .  S
C19          H24   1.080       .  S
C19          C20   1.361       .  D
C20        C1361   1.505       .  S
C25          C26   1.553       .  S
C25          C31   1.548       .  S
C25          C29   1.550       .  S
C25        C1318   1.538       .  S
C26          H33   1.085       .  S
C26          C27   1.362       .  D
C27          C28   1.541       .  S
C27        C1308   1.494       .  S
C28          C32   1.551       .  S
C28          C30   1.543       .  S
C28          H34   1.104       .  S
C29          H35   1.082       .  S
C29          C30   1.356       .  D
C30        C1381   1.493       .  S
C31          H36   1.082       .  S
C31          C32   1.366       .  D
C32        C1338   1.516       .  S
C37          C38   1.564       .  S
C37          C43   1.535       .  S
C37          C41   1.541       .  S
C37        C1298   1.545       .  S
C38          H45   1.081       .  S
C38          C39   1.381       .  D
C39          C40   1.557       .  S
C39        C1311   1.532       .  S
C40          C44   1.548       .  S
C40          C42   1.553       .  S
C40          H46   1.109       .  S
C41          H47   1.086       .  S
C41          C42   1.356       .  D
C42        C1331   1.495       .  S
C43          H48   1.086       .  S
C43          C44   1.352       .  D
C44        C1368   1.483       .  S
C49          C50   1.538       .  S
C49          C55   1.546       .  S
C49          C53   1.554       .  S
C49        C1291   1.545       .  S
C50          H57   1.084       .  S
C50          C51   1.369       .  D
C51          C52   1.554       .  S
C51        C1258   1.520       .  S
C52          C56   1.542       .  S
C52          C54   1.554       .  S
C52          H58   1.099       .  S
C53          H59   1.084       .  S
C53          C54   1.370       .  D
C54        C1278   1.503       .  S
C55          H60   1.085       .  S
C55          C56   1.353       .  D
C56        C1268   1.492       .  S
C61          C62   1.553       .  S
C61          C67   1.545       .  S
C61          C65   1.548       .  S
C61        C1251   1.552       .  S
C62          H69   1.085       .  S
C62          C63   1.364       .  D
C63          C64   1.543       .  S
C63        C1281   1.502       .  S
C64          C68   1.556       .  S
C64          C66   1.554       .  S
C64          H70   1.101       .  S
C65          H71   1.085       .  S
C65          C66   1.375       .  D
C66        C1228   1.527       .  S
C67          H72   1.082       .  S
C67          C68   1.357       .  D
C68        C1238   1.496       .  S
C73          C74   1.538       .  S
C73          C79   1.548       .  S
C73          C77   1.546       .  S
C73        C1221   1.537       .  S
C74          H81   1.083       .  S
C74          C75   1.369       .  D
C75          C76   1.554       .  S
C75        C1208   1.519       .  S
C76          C80   1.543       .  S
C76          C78   1.548       .  S
C76          H82   1.099       .  S
C77          H83   1.085       .  S
C77          C78   1.360       .  D
C78        C1271   1.490       .  S
C79          H84   1.084       .  S
C79          C80   1.358       .  D
C80        C1241   1.493       .  S
C85          C86   1.557       .  S
C85          C91   1.557       .  S
C85          C89   1.543       .  S
C85        C1201   1.538       .  S
C86          H93   1.084       .  S
C86          C87   1.366       .  D
C87          C88   1.542       .  S
C87        C1261   1.495       .  S
C88          C92   1.542       .  S
C88          C90   1.542       .  S
C88          H94   1.111       .  S
C89          H95   1.085       .  S
C89          C90   1.358       .  D
C90        C1211   1.495       .  S
C91          H96   1.085       .  S
C91          C92   1.361       .  D
C92        C1231   1.499       .  S
C97         N115   1.346       .  A
C97         C134   1.463       .  S
C97        C1391   1.478       .  S
N98         N115   1.322       .  A
N98         N120   1.320       .  A
N98        Co135   2.082   1_554  S
C99         N124   1.343       .  A
C99         C137   1.462       .  S
C99         H144   1.082       .  S
H100        C141   1.082       .  S
C101        N125   1.342       .  A
C101        C105   1.463       .  S
C101        H130   1.081       .  S
Co102       N120   2.088   1_556  S
Co102       N110   2.101   1_556  S
Co102       N142   2.089       .  S
Co102       N118   2.076       .  S
Co102      Cl146   2.460       .  S
N103        C141   1.335       .  A
N103        N110   1.320       .  A
N103       Co104   2.076   1_554  S
Co104       N107   2.085   1_556  S
Co104       N124   2.094       .  S
Co104       N111   2.092       .  S
Co104      Cl146   2.436       .  S
C105        N143   1.350       .  A
C105       C1158   1.485       .  S
N106        N113   1.318       .  A
N106        N136   1.323   1_556  A
N106       Co139   2.078       .  S
N107        N125   1.319       .  A
N107        N143   1.323       .  A
N108        C137   1.347       .  A
N108        N118   1.322       .  A
H109        C134   1.082       .  S
N110        N131   1.330       .  A
N111        N129   1.318       .  A
N111        N116   1.325       .  A
C112        N116   1.353       .  A
C112        C140   1.448       .  S
C112       C1148   1.469       .  S
N113        C128   1.337   1_556  A
N113       Co135   2.063       .  S
C114        N142   1.342       .  A
C114        C117   1.462       .  S
C114        H148   1.081       .  S
C117        N138   1.347       .  A
C117       C1198   1.478       .  S
N118        N124   1.321       .  A
N119        C145   1.346       .  A
N119        N121   1.317       .  A
N119       Co135   2.091       .  S
N120        C134   1.344       .  A
N121        N149   1.322       .  A
N121       Co139   2.079       .  S
H122        C145   1.081       .  S
H123        C140   1.083       .  S
N125       Co139   2.083   1_554  S
N126        N138   1.320       .  A
N126        N142   1.319       .  A
N126       Co135   2.067       .  S
C127        N131   1.356       .  A
C127        C141   1.455       .  S
C127       C1138   1.483       .  S
C128        C147   1.449       .  S
C128        H132   1.081       .  S
N129        C140   1.334       .  A
N129       Co139   2.057       .  S
C133        N149   1.348       .  A
C133        C145   1.467       .  S
C133       C1168   1.487       .  S
Co135      Cl146   2.441       .  S
N136        C147   1.349       .  A
C137       C1181   1.475       .  S
Co139      Cl146   2.448       .  S
C147       C1188   1.462       .  S
C150        C151   1.533       .  S
C150        C156   1.552       .  S
C150        C154   1.540       .  S
C150       C1191   1.542       .  S
C151        H158   1.086       .  S
C151        C152   1.363       .  D
C152        C153   1.546       .  S
C152       C1108   1.503       .  S
C153        C157   1.548       .  S
C153        C155   1.563       .  S
C153        H159   1.104       .  S
C154        H160   1.085       .  S
C154        C155   1.358       .  D
C155       C1121   1.494       .  S
C156        H161   1.084       .  S
C156        C157   1.373       .  D
C157       C1131   1.515       .  S
C162        C163   1.551       .  S
C162        C168   1.549       .  S
C162        C166   1.561       .  S
C162       C1098   1.551       .  S
C163        H170   1.083       .  S
C163        C164   1.356       .  D
C164        C165   1.535       .  S
C164       C1128   1.481       .  S
C165        C169   1.533       .  S
C165        C167   1.545       .  S
C165        H171   1.111       .  S
C166        H172   1.084       .  S
C166        C167   1.373       .  D
C167       C1078   1.505       .  S
C168        H173   1.086       .  S
C168        C169   1.360       .  D
C169       C1088   1.494       .  S
C174        C175   1.543       .  S
C174        C180   1.550       .  S
C174        C178   1.549       .  S
C174       C1068   1.550       .  S
C175        H182   1.086       .  S
C175        C176   1.358       .  D
C176        C177   1.548       .  S
C176       C1118   1.493       .  S
C177        C181   1.549       .  S
C177        C179   1.547       .  S
C177        H183   1.100       .  S
C178        H184   1.079       .  S
C178        C179   1.358       .  D
C179       C1058   1.497       .  S
C180        H185   1.085       .  S
C180        C181   1.376       .  D
C181       C1081   1.523       .  S
C186        C187   1.547       .  S
C186        C192   1.546       .  S
C186        C190   1.552       .  S
C186       C1048   1.548       .  S
C187        H194   1.086       .  S
C187        C188   1.360       .  D
C188        C189   1.549       .  S
C188       C1111   1.491       .  S
C189        C193   1.548       .  S
C189        C191   1.554       .  S
C189        H195   1.106       .  S
C190        H196   1.080       .  S
C190        C191   1.366       .  D
C191       C1091   1.511       .  S
C192        H197   1.086       .  S
C192        C193   1.361       .  D
C193       C1061   1.498       .  S
C198        N216   1.353       .  A
C198        C235   1.463       .  S
C198       C1051   1.491       .  S
N199        N216   1.324       .  A
N199        N221   1.317       .  A
N199       Co236   2.083       .  S
C200        N225   1.340       .  A
C200        C238   1.460       .  S
C200        H245   1.082       .  S
H201        C242   1.081       .  S
C202        N226   1.337       .  A
C202        C206   1.456       .  S
C202        H231   1.083       .  S
Co203       N221   2.077   1_545  S
Co203       N211   2.071       .  S
Co203       N243   2.071   1_545  S
Co203       N219   2.083       .  S
Co203      Cl247   2.428       .  S
N204        C242   1.343       .  A
N204        N211   1.319       .  A
N204       Co205   2.093       .  S
Co205       N208   2.093       .  S
Co205       N225   2.083       .  S
Co205       N212   2.092       .  S
Co205      Cl247   2.469       .  S
C206        N244   1.353       .  A
C206       C1001   1.480       .  S
N207        N214   1.318       .  A
N207        N237   1.320       .  A
N207       Co240   2.064   1_565  S
N208        N226   1.320       .  A
N208        N244   1.328       .  A
N209        C238   1.349       .  A
N209        N219   1.325       .  A
H210        C235   1.080       .  S
N211        N232   1.320       .  A
N212        N230   1.320       .  A
N212        N217   1.325       .  A
C213        N217   1.352       .  A
C213        C241   1.451       .  S
C213       C1038   1.471       .  S
N214        C229   1.345       .  A
N214       Co236   2.094       .  S
C215        N243   1.335       .  A
C215        C218   1.459       .  S
C215        H249   1.082   1_565  S
C218        N239   1.355       .  A
C218       C1031   1.488       .  S
N219        N225   1.320       .  A
N220        C246   1.342       .  A
N220        N222   1.320       .  A
N220       Co236   2.083       .  S
N221        C235   1.337       .  A
N222        N250   1.324       .  A
N222       Co240   2.092   1_565  S
H223        C246   1.083       .  S
H224        C241   1.081       .  S
N226       Co240   2.080       .  S
N227        N239   1.328       .  A
N227        N243   1.319       .  A
N227       Co236   2.100       .  S
C228        N232   1.345       .  A
C228        C242   1.468       .  S
C228       C1351   1.485       .  S
C229        C248   1.467       .  S
C229        H233   1.080       .  S
N230        C241   1.336       .  A
N230       Co240   2.065       .  S
C234        N250   1.351       .  A
C234        C246   1.460       .  S
C234       C1008   1.482       .  S
Co236      Cl247   2.467   1_565  S
N237        C248   1.344       .  A
C238       C1288   1.478       .  S
Co240      Cl247   2.427       .  S
C248       C1018   1.481       .  S
C251        C252   1.548       .  S
C251        C257   1.549       .  S
C251        C255   1.541       .  S
C251       C1178   1.543       .  S
C252        H259   1.085       .  S
C252        C253   1.363       .  D
C253        C254   1.554       .  S
C253        C988   1.497       .  S
C254        C258   1.537       .  S
C254        C256   1.552       .  S
C254        H260   1.101       .  S
C255        H261   1.084       .  S
C255        C256   1.371       .  D
C256        C971   1.519       .  S
C257        H262   1.083       .  S
C257        C258   1.357       .  D
C258        C981   1.490       .  S
C263        C264   1.546       .  S
C263        C269   1.534       .  S
C263        C267   1.558       .  S
C263        C958   1.545       .  S
C264        H271   1.086       .  S
C264        C265   1.358       .  D
C265        C266   1.552       .  S
C265        C948   1.497       .  S
C266        C270   1.545       .  S
C266        C268   1.557       .  S
C266        H272   1.097       .  S
C267        H273   1.084       .  S
C267        C268   1.381       .  D
C268        C938   1.529       .  S
C269        H274   1.086       .  S
C269        C270   1.353       .  D
C270        C991   1.494       .  S
C275        C276   1.557       .  S
C275        C281   1.541       .  S
C275        C279   1.559       .  S
C275       C1041   1.537       .  S
C276        H283   1.085       .  S
C276        C277   1.364       .  D
C277        C278   1.544       .  S
C277        C941   1.499       .  S
C278        C282   1.543       .  S
C278        C280   1.543       .  S
C278        H284   1.111       .  S
C279        H285   1.083       .  S
C279        C280   1.364       .  D
C280        C931   1.499       .  S
C281        H286   1.086       .  S
C281        C282   1.355       .  D
C282        C968   1.493       .  S
C287        C288   1.547       .  S
C287        C293   1.550       .  S
C287        C291   1.546       .  S
C287        C921   1.544       .  S
C288        H295   1.086       .  S
C288        C289   1.360       .  D
C289        C290   1.545       .  S
C289        C951   1.492       .  S
C290        C294   1.549       .  S
C290        C292   1.548       .  S
C290        H296   1.099       .  S
C291        H297   1.081       .  S
C291        C292   1.352       .  D
C292        C978   1.493       .  S
C293        H298   1.085       .  S
C293        C294   1.376       .  D
C294        C928   1.521       .  S
C299        C300   1.548       .  S
C299        C305   1.550       .  S
C299        C303   1.558       .  S
C299       C1171   1.550       .  S
C300        H307   1.086       .  S
C300        C301   1.358       .  D
C301        C302   1.549       .  S
C301        C898   1.500       .  S
C302        C306   1.557       .  S
C302        C304   1.537       .  S
C302        H308   1.107       .  S
C303        H309   1.079       .  S
C303        C304   1.365       .  D
C304        C888   1.499       .  S
C305        H310   1.079       .  S
C305        C306   1.371       .  D
C306        C908   1.526       .  S
C311        C312   1.540       .  S
C311        C317   1.567       .  S
C311        C315   1.542       .  S
C311       C1028   1.548       .  S
C312        H319   1.087       .  S
C312        C313   1.345       .  D
C313        C314   1.530       .  S
C313        C868   1.477       .  S
C314        C318   1.537       .  S
C314        C316   1.543       .  S
C314        H320   1.092       .  S
C315        H321   1.087       .  S
C315        C316   1.361       .  D
C316        C878   1.502       .  S
C317        H322   1.072       .  S
C317        C318   1.388       .  D
C318        C911   1.520       .  S
C323        C324   1.553       .  S
C323        C329   1.558       .  S
C323        C327   1.527       .  S
C323        C861   1.545       .  S
C324        H331   1.086       .  S
C324        C325   1.362       .  D
C325        C326   1.546       .  S
C325        C851   1.493       .  S
C326        C330   1.553       .  S
C326        C328   1.553       .  S
C326        H332   1.109       .  S
C327        H333   1.087       .  S
C327        C328   1.352       .  D
C328        C871   1.485       .  S
C329        H334   1.078       .  S
C329        C330   1.377       .  D
C330        C891   1.525       .  S
C335        C336   1.559       .  S
C335        C341   1.548       .  S
C335        C339   1.528       .  S
C335        C838   1.545       .  S
C336        H343   1.080       .  S
C336        C337   1.379       .  D
C337        C338   1.551       .  S
C337        C848   1.523       .  S
C338        C342   1.549       .  S
C338        C340   1.564       .  S
C338        H344   1.104       .  S
C339        H345   1.087       .  S
C339        C340   1.352       .  D
C340        C901   1.499       .  S
C341        H346   1.085       .  S
C341        C342   1.361       .  D
C342        C881   1.505       .  S
C347        C348   1.544       .  S
C347        C353   1.557       .  S
C347        C351   1.539       .  S
C347       C1021   1.544       .  S
C348        H355   1.086       .  S
C348        C349   1.353       .  D
C349        C350   1.542       .  S
C349        C828   1.490       .  S
C350        C354   1.548       .  S
C350        C352   1.551       .  S
C350        H356   1.098       .  S
C351        H357   1.087       .  S
C351        C352   1.359       .  D
C352        C818   1.500       .  S
C353        H358   1.076       .  S
C353        C354   1.379       .  D
C354        C811   1.518       .  S
C359        C360   1.556       .  S
C359        C365   1.540       .  S
C359        C363   1.538       .  S
C359        C798   1.549       .  S
C360        H367   1.084       .  S
C360        C361   1.374       .  D
C361        C362   1.547       .  S
C361        C788   1.515       .  S
C362        C366   1.548       .  S
C362        C364   1.563       .  S
C362        H368   1.105       .  S
C363        H369   1.085       .  S
C363        C364   1.352       .  D
C364        C831   1.494       .  S
C365        H370   1.085       .  S
C365        C366   1.370       .  D
C366        C781   1.512       .  S
C371        C372   1.540       .  S
C371        C377   1.557       .  S
C371        C375   1.563       .  S
C371       C1161   1.545       .  S
C372        H379   1.086       .  S
C372        C373   1.352       .  D
C373        C374   1.540       .  S
C373        C778   1.485       .  S
C374        C378   1.541       .  S
C374        C376   1.549       .  S
C374        H380   1.111       .  S
C375        H381   1.083       .  S
C375        C376   1.371       .  D
C376        C808   1.505       .  S
C377        H382   1.085       .  S
C377        C378   1.364       .  D
C378        C768   1.505       .  S
C383        C384   1.544       .  S
C383        C389   1.557       .  S
C383        C387   1.552       .  S
C383        C758   1.547       .  S
C384        H391   1.086       .  S
C384        C385   1.361       .  D
C385        C386   1.548       .  S
C385        C791   1.494       .  S
C386        C390   1.547       .  S
C386        C388   1.550       .  S
C386        H392   1.108       .  S
C387        H393   1.083       .  S
C387        C388   1.365       .  D
C388        C771   1.506       .  S
C389        H394   1.084       .  S
C389        C390   1.364       .  D
C390        C821   1.504       .  S
C395        C396   1.561       .  S
C395        C401   1.551       .  S
C395        C399   1.534       .  S
C395       C1151   1.540       .  S
C396        H403   1.081       .  S
C396        C397   1.372       .  D
C397        C398   1.556       .  S
C397        C728   1.517       .  S
C398        C402   1.545       .  S
C398        C400   1.549       .  S
C398        H404   1.105       .  S
C399        H405   1.087       .  S
C399        C400   1.349       .  D
C400        C738   1.494       .  S
C401        H406   1.085       .  S
C401        C402   1.362       .  D
C402        C748   1.496       .  S
C407        C408   1.545       .  S
C407        C413   1.562       .  S
C407        C411   1.537       .  S
C407        C718   1.538       .  S
C408        H415   1.085       .  S
C408        C409   1.356       .  D
C409        C410   1.536       .  S
C409        C741   1.484       .  S
C410        C414   1.551       .  S
C410        C412   1.540       .  S
C410        H416   1.097       .  S
C411        H417   1.086       .  S
C411        C412   1.358       .  D
C412        C698   1.496       .  S
C413        H418   1.075       .  S
C413        C414   1.375       .  D
C414        C708   1.522       .  S
C419        C420   1.565       .  S
C419        C425   1.546       .  S
C419        C423   1.535       .  S
C419       C1011   1.548       .  S
C420        H427   1.084       .  S
C420        C421   1.383       .  D
C421        C422   1.552       .  S
C421        C731   1.527       .  S
C422        C426   1.555       .  S
C422        C424   1.534       .  S
C422        H428   1.095       .  S
C423        H429   1.086       .  S
C423        C424   1.351       .  D
C424        C688   1.488       .  S
C425        H430   1.086       .  S
C425        C426   1.357       .  D
C426        C701   1.505       .  S
C431        C432   1.541       .  S
C431        C437   1.541       .  S
C431        C435   1.565       .  S
C431        C678   1.548       .  S
C432        H439   1.086       .  S
C432        C433   1.360       .  D
C433        C434   1.533       .  S
C433        C751   1.497       .  S
C434        C438   1.545       .  S
C434        C436   1.556       .  S
C434        H440   1.109       .  S
C435        H441   1.079       .  S
C435        C436   1.383       .  D
C436        C711   1.523       .  S
C437        H442   1.086       .  S
C437        C438   1.350       .  D
C438        C691   1.486       .  S
C443        N461   1.357       .  A
C443        C480   1.456       .  S
C443        C671   1.488       .  S
N444        N461   1.330       .  A
N444        N466   1.320       .  A
N444       Co481   2.110   1_554  S
C445        N470   1.337       .  A
C445        C483   1.465       .  S
C445        H490   1.080   1_554  S
H446        C487   1.079   1_556  S
C447        N471   1.343       .  A
C447        C451   1.466       .  S
C447        H476   1.081       .  S
Co448       N466   2.075   1_455  S
Co448       N456   2.089       .  S
Co448       N488   2.082   1_445  S
Co448       N464   2.089   1_545  S
Co448      Cl492   2.436   1_554  S
N449        C487   1.332       .  A
N449        N456   1.315       .  A
N449       Co450   2.059   1_554  S
Co450       N453   2.082       .  S
Co450       N470   2.072   1_546  S
Co450       N457   2.079   1_545  S
Co450      Cl492   2.451       .  S
C451        N489   1.349       .  A
C451       C1248   1.489       .  S
N452        N459   1.319       .  A
N452        N482   1.323       .  A
N452       Co485   2.089   1_655  S
N453        N471   1.319       .  A
N453        N489   1.323       .  A
N454        C483   1.353       .  A
N454        N464   1.325       .  A
H455        C480   1.081   1_455  S
N456        N477   1.325       .  A
N457        N475   1.320       .  A
N457        N462   1.323       .  A
C458        N462   1.348       .  A
C458        C486   1.462       .  S
C458        C841   1.479       .  S
N459        C474   1.337       .  A
N459       Co481   2.082       .  S
C460        N488   1.338       .  A
C460        C463   1.459       .  S
C460        H494   1.080       .  S
C463        N484   1.352       .  A
C463        C761   1.480       .  S
N464        N470   1.317       .  A
N465        C491   1.340       .  A
N465        N467   1.322       .  A
N465       Co481   2.089   1_565  S
N466        C480   1.337       .  A
N467        N495   1.325       .  A
N467       Co485   2.090   1_665  S
H468        C491   1.083       .  S
H469        C486   1.081       .  S
N471       Co485   2.089       .  S
N472        N484   1.328       .  A
N472        N488   1.319       .  A
N472       Co481   2.091   1_564  S
C473        N477   1.353       .  A
C473        C487   1.461       .  S
C473       C1321   1.490       .  S
C474        C493   1.468       .  S
C474        H478   1.080       .  S
N475        C486   1.344       .  A
N475       Co485   2.091   1_565  S
C479        N495   1.349       .  A
C479        C491   1.462       .  S
C479        C681   1.478       .  S
Co481      Cl492   2.461   1_655  S
N482        C493   1.351       .  A
C483       C1101   1.494       .  S
Co485      Cl492   2.447       .  S
C493        C918   1.498       .  S
C496        C497   1.566       .  S
C496        C502   1.549       .  S
C496        C500   1.535       .  S
C496        C998   1.545       .  S
C497        H504   1.074       .  S
C497        C498   1.382       .  D
C498        C499   1.551       .  S
C498        C641   1.529       .  S
C499        C503   1.540       .  S
C499        C501   1.546       .  S
C499        H505   1.101       .  S
C500        H506   1.086       .  S
C500        C501   1.352       .  D
C501        C658   1.493       .  S
C502        H507   1.087       .  S
C502        C503   1.355       .  D
C503        C648   1.490       .  S
C508        C509   1.557       .  S
C508        C514   1.543       .  S
C508        C512   1.550       .  S
C508        C668   1.555       .  S
C509        H516   1.080       .  S
C509        C510   1.368       .  D
C510        C511   1.544       .  S
C510        C621   1.508       .  S
C511        C515   1.559       .  S
C511        C513   1.549       .  S
C511        H517   1.099       .  S
C512        H518   1.082       .  S
C512        C513   1.374       .  D
C513        C631   1.523       .  S
C514        H519   1.086       .  S
C514        C515   1.355       .  D
C515        C661   1.501       .  S
C520        C521   1.553       .  S
C520        C526   1.533       .  S
C520        C524   1.558       .  S
C520       C1141   1.551       .  S
C521        H528   1.084       .  S
C521        C522   1.367       .  D
C522        C523   1.546       .  S
C522        C618   1.509       .  S
C523        C527   1.537       .  S
C523        C525   1.547       .  S
C523        H529   1.094       .  S
C524        H530   1.084       .  S
C524        C525   1.382       .  D
C525        C638   1.523       .  S
C526        H531   1.087       .  S
C526        C527   1.351       .  D
C527        C608   1.485       .  S
C532        C533   1.542       .  S
C532        C538   1.554       .  S
C532        C536   1.540       .  S
C532        C601   1.542       .  S
C533        H540   1.084       .  S
C533        C534   1.359       .  D
C534        C535   1.553       .  S
C534        C611   1.490       .  S
C535        C539   1.546       .  S
C535        C537   1.553       .  S
C535        H541   1.110       .  S
C536        H542   1.083       .  S
C536        C537   1.367       .  D
C537        C651   1.518       .  S
C538        H543   1.084       .  S
C538        C539   1.363       .  D
C539        C628   1.492       .  S
C544        N562   1.348       .  A
C544        C581   1.455       .  S
C544       C1301   1.471       .  S
N545        N562   1.325       .  A
N545        N567   1.321       .  A
N545       Co582   2.081       .  S
C546        N571   1.338       .  A
C546        C584   1.455       .  S
C546        H591   1.082       .  S
H547        C588   1.079       .  S
C548        N572   1.342       .  A
C548        C552   1.458       .  S
C548        H577   1.082       .  S
Co549       N567   2.079       .  S
Co549       N557   2.090       .  S
Co549       N589   2.078   1_455  S
Co549       N565   2.095   1_455  S
Co549      Cl593   2.440       .  S
N550        C588   1.336       .  A
N550        N557   1.318       .  A
N550       Co551   2.075       .  S
Co551       N554   2.088       .  S
Co551       N571   2.069   1_455  S
Co551       N558   2.079   1_455  S
Co551      Cl593   2.453       .  S
C552        N590   1.351       .  A
C552        C858   1.480       .  S
N553        N560   1.320       .  A
N553        N583   1.322       .  A
N553       Co586   2.073       .  S
N554        N572   1.319       .  A
N554        N590   1.325       .  A
N555        C584   1.352       .  A
N555        N565   1.325       .  A
H556        C581   1.082       .  S
N557        N578   1.326       .  A
N558        N576   1.319       .  A
N558        N563   1.323       .  A
C559        N563   1.348       .  A
C559        C587   1.457       .  S
C559        C721   1.470       .  S
N560        C575   1.342       .  A
N560       Co582   2.093       .  S
C561        N589   1.337       .  A
C561        C564   1.455       .  S
C561        H595   1.080       .  S
C564        N585   1.352       .  A
C564        C598   1.477       .  S
N565        N571   1.319       .  A
N566        C592   1.343       .  A
N566        N568   1.319       .  A
N566       Co582   2.081   1_655  S
N567        C581   1.337       .  A
N568        N596   1.324       .  A
N568       Co586   2.084   1_655  S
H569        C592   1.057       .  S
H570        C587   1.081       .  S
N572       Co586   2.083       .  S
N573        N585   1.327       .  A
N573        N589   1.321       .  A
N573       Co582   2.091   1_655  S
C574        N578   1.354       .  A
C574        C588   1.465       .  S
C574       C1071   1.498       .  S
C575        C594   1.464       .  S
C575        H579   1.081       .  S
N576        C587   1.341       .  A
N576       Co586   2.077   1_655  S
C580        N596   1.350       .  A
C580        C592   1.459       .  S
C580        C961   1.475       .  S
Co582      Cl593   2.458       .  S
N583        C594   1.346       .  A
C584        C801   1.479       .  S
Co586      Cl593   2.445       .  S
C594       C1218   1.478       .  S
C597        C598   1.409       .  A
C597        C602   1.409       .  A
C597       Br604   1.931       .  S
C598        C599   1.406       .  A
C599        C600   1.406       .  A
C599       Br606   1.934       .  S
C600        C601   1.421       .  A
C600       Br605   1.932       .  S
C601        C602   1.422       .  A
C602       Br603   1.934       .  S
C607        C608   1.399       .  A
C607        C612   1.408       .  A
C607       Br614   1.920       .  S
C608        C609   1.406       .  A
C609        C610   1.410       .  A
C609       Br616   1.922       .  S
C610        C611   1.408       .  A
C610       Br615   1.928       .  S
C611        C612   1.408       .  A
C612       Br613   1.914       .  S
C617        C618   1.421       .  A
C617        C622   1.419       .  A
C617       Br624   1.928       .  S
C618        C619   1.409       .  A
C619        C620   1.410       .  A
C619       Br626   1.911       .  S
C620        C621   1.406       .  A
C620       Br625   1.913       .  S
C621        C622   1.406       .  A
C622       Br623   1.918       .  S
C627        C628   1.378       .  A
C627        C632   1.381       .  A
C627       Br634   1.908       .  S
C628        C629   1.406       .  A
C629        C630   1.428       .  A
C629       Br636   1.918       .  S
C630        C631   1.436       .  A
C630       Br635   1.926       .  S
C631        C632   1.418       .  A
C632       Br633   1.883       .  S
C637        C638   1.413       .  A
C637        C642   1.381       .  A
C637       Br644   1.924       .  S
C638        C639   1.429       .  A
C639        C640   1.433       .  A
C639       Br646   1.925       .  S
C640        C641   1.423       .  A
C640       Br645   1.928       .  S
C641        C642   1.394       .  A
C642       Br643   1.888       .  S
C647        C648   1.387       .  A
C647        C652   1.393       .  A
C647       Br654   1.916       .  S
C648        C649   1.404       .  A
C649        C650   1.421       .  A
C649       Br656   1.921       .  S
C650        C651   1.433       .  A
C650       Br655   1.932       .  S
C651        C652   1.416       .  A
C652       Br653   1.895       .  S
C657        C658   1.408       .  A
C657        C662   1.416       .  A
C657       Br664   1.926       .  S
C658        C659   1.403       .  A
C659        C660   1.412       .  A
C659       Br666   1.920       .  S
C660        C661   1.411       .  A
C660       Br665   1.923       .  S
C661        C662   1.408       .  A
C662       Br663   1.918       .  S
C667        C668   1.423       .  A
C667        C672   1.408       .  A
C667       Br674   1.930       .  S
C668        C669   1.422       .  A
C669        C670   1.416       .  A
C669       Br676   1.930       .  S
C670        C671   1.408       .  A
C670       Br675   1.929       .  S
C671        C672   1.410       .  A
C672       Br673   1.934       .  S
C677        C678   1.429       .  A
C677        C682   1.403       .  A
C677       Br684   1.937       .  S
C678        C679   1.424       .  A
C679        C680   1.415       .  A
C679       Br686   1.927       .  S
C680        C681   1.405       .  A
C680       Br685   1.929       .  S
C681        C682   1.403       .  A
C682       Br683   1.936       .  S
C687        C688   1.407       .  A
C687        C692   1.410       .  A
C687       Br694   1.912       .  S
C688        C689   1.408       .  A
C689        C690   1.405       .  A
C689       Br696   1.918       .  S
C690        C691   1.399       .  A
C690       Br695   1.922       .  S
C691        C692   1.403       .  A
C692       Br693   1.925       .  S
C697        C698   1.410       .  A
C697        C702   1.409       .  A
C697       Br704   1.926       .  S
C698        C699   1.409       .  A
C699        C700   1.417       .  A
C699       Br706   1.918       .  S
C700        C701   1.417       .  A
C700       Br705   1.927       .  S
C701        C702   1.405       .  A
C702       Br703   1.911       .  S
C707        C708   1.388       .  A
C707        C712   1.374       .  A
C707       Br714   1.913       .  S
C708        C709   1.434       .  A
C709        C710   1.446       .  A
C709       Br716   1.925       .  S
C710        C711   1.437       .  A
C710       Br715   1.920       .  S
C711        C712   1.395       .  A
C712       Br713   1.895       .  S
C717        C718   1.426       .  A
C717        C722   1.407       .  A
C717       Br724   1.937       .  S
C718        C719   1.420       .  A
C719        C720   1.405       .  A
C719       Br726   1.933       .  S
C720        C721   1.406       .  A
C720       Br725   1.932       .  S
C721        C722   1.403       .  A
C722       Br723   1.933       .  S
C727        C728   1.384       .  A
C727        C732   1.378       .  A
C727       Br734   1.896       .  S
C728        C729   1.421       .  A
C729        C730   1.436       .  A
C729       Br736   1.927       .  S
C730        C731   1.430       .  A
C730       Br735   1.921       .  S
C731        C732   1.410       .  A
C732       Br733   1.887       .  S
C737        C738   1.400       .  A
C737        C742   1.402       .  A
C737       Br744   1.904       .  S
C738        C739   1.411       .  A
C739        C740   1.415       .  A
C739       Br746   1.929       .  S
C740        C741   1.408       .  A
C740       Br745   1.920       .  S
C741        C742   1.403       .  A
C742       Br743   1.925       .  S
C747        C748   1.397       .  A
C747        C752   1.402       .  A
C747       Br754   1.914       .  S
C748        C749   1.407       .  A
C749        C750   1.415       .  A
C749       Br756   1.919       .  S
C750        C751   1.417       .  A
C750       Br755   1.926       .  S
C751        C752   1.408       .  A
C752       Br753   1.901       .  S
C757        C758   1.420       .  A
C757        C762   1.404       .  A
C757       Br764   1.930       .  S
C758        C759   1.426       .  A
C759        C760   1.415       .  A
C759       Br766   1.935       .  S
C760        C761   1.406       .  A
C760       Br765   1.930       .  S
C761        C762   1.405       .  A
C762       Br763   1.931       .  S
C767        C768   1.401       .  A
C767        C772   1.401       .  A
C767       Br774   1.908       .  S
C768        C769   1.417       .  A
C769        C770   1.424       .  A
C769       Br776   1.929       .  S
C770        C771   1.416       .  A
C770       Br775   1.924       .  S
C771        C772   1.400       .  A
C772       Br773   1.903       .  S
C777        C778   1.400       .  A
C777        C782   1.420       .  A
C777       Br784   1.928       .  S
C778        C779   1.380       .  A
C779        C780   1.388       .  A
C779       Br786   1.913       .  S
C780        C781   1.418       .  A
C780       Br785   1.895       .  S
C781        C782   1.433       .  A
C782       Br783   1.925       .  S
C787        C788   1.416       .  A
C787        C792   1.390       .  A
C787       Br794   1.891       .  S
C788        C789   1.429       .  A
C789        C790   1.421       .  A
C789       Br796   1.914       .  S
C790        C791   1.399       .  A
C790       Br795   1.928       .  S
C791        C792   1.380       .  A
C792       Br793   1.907       .  S
C797        C798   1.424       .  A
C797        C802   1.409       .  A
C797       Br804   1.936       .  S
C798        C799   1.418       .  A
C799        C800   1.408       .  A
C799       Br806   1.920       .  S
C800        C801   1.408       .  A
C800       Br805   1.934       .  S
C801        C802   1.408       .  A
C802       Br803   1.934       .  S
C807        C808   1.412       .  A
C807        C812   1.431       .  A
C807       Br814   1.925       .  S
C808        C809   1.380       .  A
C809        C810   1.380       .  A
C809       Br816   1.891       .  S
C810        C811   1.416       .  A
C810       Br815   1.919       .  S
C811        C812   1.434       .  A
C812       Br813   1.927       .  S
C817        C818   1.408       .  A
C817        C822   1.413       .  A
C817       Br824   1.917       .  S
C818        C819   1.414       .  A
C819        C820   1.414       .  A
C819       Br826   1.926       .  S
C820        C821   1.403       .  A
C820       Br825   1.911       .  S
C821        C822   1.407       .  A
C822       Br823   1.919       .  S
C827        C828   1.407       .  A
C827        C832   1.411       .  A
C827       Br834   1.915       .  S
C828        C829   1.407       .  A
C829        C830   1.411       .  A
C829       Br836   1.920       .  S
C830        C831   1.403       .  A
C830       Br835   1.927       .  S
C831        C832   1.403       .  A
C832       Br833   1.925       .  S
C837        C838   1.424       .  A
C837        C842   1.413       .  A
C837       Br844   1.934       .  S
C838        C839   1.426       .  A
C839        C840   1.406       .  A
C839       Br846   1.939       .  S
C840        C841   1.406       .  A
C840       Br845   1.934       .  S
C841        C842   1.405       .  A
C842       Br843   1.929       .  S
C847        C848   1.418       .  A
C847        C852   1.383       .  A
C847       Br854   1.886       .  S
C848        C849   1.436       .  A
C849        C850   1.428       .  A
C849       Br856   1.926       .  S
C850        C851   1.406       .  A
C850       Br855   1.919       .  S
C851        C852   1.377       .  A
C852       Br853   1.908       .  S
C857        C858   1.408       .  A
C857        C862   1.414       .  A
C857       Br864   1.933       .  S
C858        C859   1.406       .  A
C859        C860   1.406       .  A
C859       Br866   1.933       .  S
C860        C861   1.425       .  A
C860       Br865   1.938       .  S
C861        C862   1.424       .  A
C862       Br863   1.934       .  S
C867        C868   1.406       .  A
C867        C872   1.410       .  A
C867       Br874   1.922       .  S
C868        C869   1.395       .  A
C869        C870   1.403       .  A
C869       Br876   1.917       .  S
C870        C871   1.407       .  A
C870       Br875   1.912       .  S
C871        C872   1.409       .  A
C872       Br873   1.930       .  S
C877        C878   1.407       .  A
C877        C882   1.410       .  A
C877       Br884   1.914       .  S
C878        C879   1.419       .  A
C879        C880   1.414       .  A
C879       Br886   1.928       .  S
C880        C881   1.405       .  A
C880       Br885   1.918       .  S
C881        C882   1.409       .  A
C882       Br883   1.915       .  S
C887        C888   1.405       .  A
C887        C892   1.425       .  A
C887       Br894   1.920       .  S
C888        C889   1.391       .  A
C889        C890   1.397       .  A
C889       Br896   1.919       .  S
C890        C891   1.418       .  A
C890       Br895   1.900       .  S
C891        C892   1.433       .  A
C892       Br893   1.929       .  S
C897        C898   1.407       .  A
C897        C902   1.415       .  A
C897       Br904   1.917       .  S
C898        C899   1.412       .  A
C899        C900   1.414       .  A
C899       Br906   1.919       .  S
C900        C901   1.402       .  A
C900       Br905   1.918       .  S
C901        C902   1.406       .  A
C902       Br903   1.926       .  S
C907        C908   1.428       .  A
C907        C912   1.433       .  A
C907       Br914   1.929       .  S
C908        C909   1.389       .  A
C909        C910   1.377       .  A
C909       Br916   1.885       .  S
C910        C911   1.417       .  A
C910       Br915   1.931       .  S
C911        C912   1.428       .  A
C912       Br913   1.931       .  S
C917        C918   1.426       .  A
C917        C922   1.416       .  A
C917       Br924   1.935       .  S
C918        C919   1.414       .  A
C919        C920   1.398       .  A
C919       Br926   1.929       .  S
C920        C921   1.411       .  A
C920       Br925   1.933       .  S
C921        C922   1.416       .  A
C922       Br923   1.934       .  S
C927        C928   1.419       .  A
C927        C932   1.385       .  A
C927       Br934   1.904       .  S
C928        C929   1.434       .  A
C929        C930   1.430       .  A
C929       Br936   1.925       .  S
C930        C931   1.409       .  A
C930       Br935   1.927       .  S
C931        C932   1.382       .  A
C932       Br933   1.907       .  S
C937        C938   1.434       .  A
C937        C942   1.426       .  A
C937       Br944   1.918       .  S
C938        C939   1.421       .  A
C939        C940   1.387       .  A
C939       Br946   1.898       .  S
C940        C941   1.381       .  A
C940       Br945   1.908       .  S
C941        C942   1.405       .  A
C942       Br943   1.923       .  S
C947        C948   1.408       .  A
C947        C952   1.410       .  A
C947       Br954   1.912       .  S
C948        C949   1.411       .  A
C949        C950   1.414       .  A
C949       Br956   1.926       .  S
C950        C951   1.407       .  A
C950       Br955   1.917       .  S
C951        C952   1.401       .  A
C952       Br953   1.918       .  S
C957        C958   1.424       .  A
C957        C962   1.409       .  A
C957       Br964   1.925       .  S
C958        C959   1.428       .  A
C959        C960   1.408       .  A
C959       Br966   1.939       .  S
C960        C961   1.406       .  A
C960       Br965   1.934       .  S
C961        C962   1.402       .  A
C962       Br963   1.934       .  S
C967        C968   1.406       .  A
C967        C972   1.425       .  A
C967       Br974   1.928       .  S
C968        C969   1.380       .  A
C969        C970   1.384       .  A
C969       Br976   1.910       .  S
C970        C971   1.417       .  A
C970       Br975   1.893       .  S
C971        C972   1.434       .  A
C972       Br973   1.928       .  S
C977        C978   1.404       .  A
C977        C982   1.405       .  A
C977       Br984   1.910       .  S
C978        C979   1.413       .  A
C979        C980   1.414       .  A
C979       Br986   1.929       .  S
C980        C981   1.408       .  A
C980       Br985   1.921       .  S
C981        C982   1.400       .  A
C982       Br983   1.910       .  S
C987        C988   1.404       .  A
C987        C992   1.411       .  A
C987       Br994   1.915       .  S
C988        C989   1.407       .  A
C989        C990   1.413       .  A
C989       Br996   1.924       .  S
C990        C991   1.409       .  A
C990       Br995   1.919       .  S
C991        C992   1.406       .  A
C992       Br993   1.915       .  S
C997        C998   1.429       .  A
C997       C1002   1.402       .  A
C997      Br1004   1.941       .  S
C998        C999   1.426       .  A
C999       C1000   1.416       .  A
C999      Br1006   1.933       .  S
C1000      C1001   1.406       .  A
C1000     Br1005   1.925       .  S
C1001      C1002   1.404       .  A
C1002     Br1003   1.935       .  S
C1007      C1008   1.405       .  A
C1007      C1012   1.416       .  A
C1007     Br1014   1.929       .  S
C1008      C1009   1.403       .  A
C1009      C1010   1.404       .  A
C1009     Br1016   1.931       .  S
C1010      C1011   1.431       .  A
C1010     Br1015   1.944       .  S
C1011      C1012   1.427       .  A
C1012     Br1013   1.928       .  S
C1017      C1018   1.407       .  A
C1017      C1022   1.414       .  A
C1017     Br1024   1.933       .  S
C1018      C1019   1.410       .  A
C1019      C1020   1.404       .  A
C1019     Br1026   1.933       .  S
C1020      C1021   1.423       .  A
C1020     Br1025   1.942       .  S
C1021      C1022   1.423       .  A
C1022     Br1023   1.931       .  S
C1027      C1028   1.419       .  A
C1027      C1032   1.415       .  A
C1027     Br1034   1.929       .  S
C1028      C1029   1.426       .  A
C1029      C1030   1.404       .  A
C1029     Br1036   1.942       .  S
C1030      C1031   1.410       .  A
C1030     Br1035   1.938       .  S
C1031      C1032   1.410       .  A
C1032     Br1033   1.924       .  S
C1037      C1038   1.406       .  A
C1037      C1042   1.407       .  A
C1037     Br1044   1.933       .  S
C1038      C1039   1.405       .  A
C1039      C1040   1.405       .  A
C1039     Br1046   1.933       .  S
C1040      C1041   1.422       .  A
C1040     Br1045   1.932       .  S
C1041      C1042   1.421       .  A
C1042     Br1043   1.935       .  S
C1047      C1048   1.420       .  A
C1047      C1052   1.405       .  A
C1047     Br1054   1.930       .  S
C1048      C1049   1.427       .  A
C1049      C1050   1.411       .  A
C1049     Br1056   1.937       .  S
C1050      C1051   1.415       .  A
C1050     Br1055   1.939       .  S
C1051      C1052   1.411       .  A
C1052     Br1053   1.935       .  S
C1057      C1058   1.405       .  A
C1057      C1062   1.409       .  A
C1057     Br1064   1.917       .  S
C1058      C1059   1.418       .  A
C1059      C1060   1.414       .  A
C1059     Br1066   1.925       .  S
C1060      C1061   1.404       .  A
C1060     Br1065   1.915       .  S
C1061      C1062   1.403       .  A
C1062     Br1063   1.909       .  S
C1067      C1068   1.417       .  A
C1067      C1072   1.402       .  A
C1067     Br1074   1.934       .  S
C1068      C1069   1.422       .  A
C1069      C1070   1.416       .  A
C1069     Br1076   1.936       .  S
C1070      C1071   1.420       .  A
C1070     Br1075   1.936       .  S
C1071      C1072   1.414       .  A
C1072     Br1073   1.934       .  S
C1077      C1078   1.385       .  A
C1077      C1082   1.384       .  A
C1077     Br1084   1.897       .  S
C1078      C1079   1.410       .  A
C1079      C1080   1.430       .  A
C1079     Br1086   1.926       .  S
C1080      C1081   1.432       .  A
C1080     Br1085   1.924       .  S
C1081      C1082   1.417       .  A
C1082     Br1083   1.913       .  S
C1087      C1088   1.403       .  A
C1087      C1092   1.419       .  A
C1087     Br1094   1.927       .  S
C1088      C1089   1.393       .  A
C1089      C1090   1.404       .  A
C1089     Br1096   1.911       .  S
C1090      C1091   1.411       .  A
C1090     Br1095   1.896       .  S
C1091      C1092   1.422       .  A
C1092     Br1093   1.920       .  S
C1097      C1098   1.427       .  A
C1097      C1102   1.407       .  A
C1097     Br1104   1.938       .  S
C1098      C1099   1.425       .  A
C1099      C1100   1.414       .  A
C1099     Br1106   1.937       .  S
C1100      C1101   1.416       .  A
C1100     Br1105   1.938       .  S
C1101      C1102   1.411       .  A
C1102     Br1103   1.938   1_554  S
C1107      C1108   1.429       .  A
C1107      C1112   1.419       .  A
C1107     Br1114   1.926       .  S
C1108      C1109   1.413       .  A
C1109      C1110   1.390       .  A
C1109     Br1116   1.893       .  S
C1110      C1111   1.385       .  A
C1110     Br1115   1.917       .  S
C1111      C1112   1.399       .  A
C1112     Br1113   1.926       .  S
C1117      C1118   1.409       .  A
C1117      C1122   1.414       .  A
C1117     Br1124   1.921       .  S
C1118      C1119   1.406       .  A
C1119      C1120   1.411       .  A
C1119     Br1126   1.916       .  S
C1120      C1121   1.403       .  A
C1120     Br1125   1.925       .  S
C1121      C1122   1.404       .  A
C1122     Br1123   1.926       .  S
C1127      C1128   1.396       .  A
C1127      C1132   1.412       .  A
C1127     Br1134   1.923       .  S
C1128      C1129   1.383       .  A
C1129      C1130   1.393       .  A
C1129     Br1136   1.916       .  S
C1130      C1131   1.416       .  A
C1130     Br1135   1.882       .  S
C1131      C1132   1.423       .  A
C1132     Br1133   1.913       .  S
C1137      C1138   1.403       .  A
C1137      C1142   1.415       .  A
C1137     Br1144   1.932       .  S
C1138      C1139   1.407       .  A
C1139      C1140   1.408       .  A
C1139     Br1146   1.936       .  S
C1140      C1141   1.427       .  A
C1140     Br1145   1.938       .  S
C1141      C1142   1.429       .  A
C1142     Br1143   1.930       .  S
C1147      C1148   1.401       .  A
C1147      C1152   1.403       .  A
C1147     Br1154   1.935       .  S
C1148      C1149   1.403       .  A
C1149      C1150   1.409       .  A
C1149     Br1156   1.936       .  S
C1150      C1151   1.430       .  A
C1150     Br1155   1.937       .  S
C1151      C1152   1.430       .  A
C1152     Br1153   1.939       .  S
C1157      C1158   1.410       .  A
C1157      C1162   1.407       .  A
C1157     Br1164   1.936       .  S
C1158      C1159   1.408       .  A
C1159      C1160   1.414       .  A
C1159     Br1166   1.936       .  S
C1160      C1161   1.426       .  A
C1160     Br1165   1.933       .  S
C1161      C1162   1.427       .  A
C1162     Br1163   1.943       .  S
C1167      C1168   1.411       .  A
C1167      C1172   1.416       .  A
C1167     Br1174   1.931       .  S
C1168      C1169   1.412       .  A
C1169      C1170   1.405       .  A
C1169     Br1176   1.936       .  S
C1170      C1171   1.419       .  A
C1170     Br1175   1.931       .  S
C1171      C1172   1.422       .  A
C1172     Br1173   1.933       .  S
C1177      C1178   1.422       .  A
C1177      C1182   1.409       .  A
C1177     Br1184   1.931       .  S
C1178      C1179   1.422       .  A
C1179      C1180   1.407       .  A
C1179     Br1186   1.936       .  S
C1180      C1181   1.408       .  A
C1180     Br1185   1.934       .  S
C1181      C1182   1.405       .  A
C1182     Br1183   1.931       .  S
C1187      C1188   1.403       .  A
C1187      C1192   1.409       .  A
C1187     Br1194   1.933       .  S
C1188      C1189   1.398       .  A
C1189      C1190   1.400       .  A
C1189     Br1196   1.936       .  S
C1190      C1191   1.422       .  A
C1190     Br1195   1.917       .  S
C1191      C1192   1.425       .  A
C1192     Br1193   1.934       .  S
C1197      C1198   1.408       .  A
C1197      C1202   1.409       .  A
C1197     Br1204   1.934       .  S
C1198      C1199   1.412       .  A
C1199      C1200   1.406       .  A
C1199     Br1206   1.937       .  S
C1200      C1201   1.422       .  A
C1200     Br1205   1.940       .  S
C1201      C1202   1.421       .  A
C1202     Br1203   1.932       .  S
C1207      C1208   1.418       .  A
C1207      C1212   1.385       .  A
C1207     Br1214   1.900       .  S
C1208      C1209   1.434       .  A
C1209      C1210   1.425       .  A
C1209     Br1216   1.928       .  S
C1210      C1211   1.406       .  A
C1210     Br1215   1.927       .  S
C1211      C1212   1.382       .  A
C1212     Br1213   1.908       .  S
C1217      C1218   1.412       .  A
C1217      C1222   1.407       .  A
C1217     Br1224   1.932       .  S
C1218      C1219   1.406       .  A
C1219      C1220   1.406       .  A
C1219     Br1226   1.927       .  S
C1220      C1221   1.418       .  A
C1220     Br1225   1.932       .  S
C1221      C1222   1.420       .  A
C1222     Br1223   1.936       .  S
C1227      C1228   1.434       .  A
C1227      C1232   1.429       .  A
C1227     Br1234   1.924       .  S
C1228      C1229   1.418       .  A
C1229      C1230   1.387       .  A
C1229     Br1236   1.891       .  S
C1230      C1231   1.381       .  A
C1230     Br1235   1.910       .  S
C1231      C1232   1.407       .  A
C1232     Br1233   1.928       .  S
C1237      C1238   1.408       .  A
C1237      C1242   1.411       .  A
C1237     Br1244   1.926       .  S
C1238      C1239   1.406       .  A
C1239      C1240   1.413       .  A
C1239     Br1246   1.917       .  S
C1240      C1241   1.406       .  A
C1240     Br1245   1.917       .  S
C1241      C1242   1.406       .  A
C1242     Br1243   1.918       .  S
C1247      C1248   1.414       .  A
C1247      C1252   1.411       .  A
C1247     Br1254   1.934       .  S
C1248      C1249   1.409       .  A
C1249      C1250   1.412       .  A
C1249     Br1256   1.934       .  S
C1250      C1251   1.424       .  A
C1250     Br1255   1.935       .  S
C1251      C1252   1.420       .  A
C1252     Br1253   1.933       .  S
C1257      C1258   1.436       .  A
C1257      C1262   1.425       .  A
C1257     Br1264   1.929       .  S
C1258      C1259   1.419       .  A
C1259      C1260   1.387       .  A
C1259     Br1266   1.903       .  S
C1260      C1261   1.383       .  A
C1260     Br1265   1.907       .  S
C1261      C1262   1.405       .  A
C1262     Br1263   1.926       .  S
C1267      C1268   1.401       .  A
C1267      C1272   1.406       .  A
C1267     Br1274   1.912       .  S
C1268      C1269   1.409       .  A
C1269      C1270   1.412       .  A
C1269     Br1276   1.918       .  S
C1270      C1271   1.411       .  A
C1270     Br1275   1.927       .  S
C1271      C1272   1.404       .  A
C1272     Br1273   1.911       .  S
C1277      C1278   1.410       .  A
C1277      C1282   1.419       .  A
C1277     Br1284   1.926       .  S
C1278      C1279   1.403       .  A
C1279      C1280   1.410       .  A
C1279     Br1286   1.911       .  S
C1280      C1281   1.405       .  A
C1280     Br1285   1.910       .  S
C1281      C1282   1.412       .  A
C1282     Br1283   1.919       .  S
C1287      C1288   1.406       .  A
C1287      C1292   1.404       .  A
C1287     Br1294   1.934       .  S
C1288      C1289   1.408       .  A
C1289      C1290   1.413       .  A
C1289     Br1296   1.931       .  S
C1290      C1291   1.419       .  A
C1290     Br1295   1.930       .  S
C1291      C1292   1.425       .  A
C1292     Br1293   1.934       .  S
C1297      C1298   1.431       .  A
C1297      C1302   1.406       .  A
C1297     Br1304   1.940       .  S
C1298      C1299   1.422       .  A
C1299      C1300   1.407       .  A
C1299     Br1306   1.921       .  S
C1300      C1301   1.404       .  A
C1300     Br1305   1.936       .  S
C1301      C1302   1.399       .  A
C1302     Br1303   1.930       .  S
C1307      C1308   1.404       .  A
C1307      C1312   1.426       .  A
C1307     Br1314   1.924       .  S
C1308      C1309   1.384       .  A
C1309      C1310   1.393       .  A
C1309     Br1316   1.916       .  S
C1310      C1311   1.420       .  A
C1310     Br1315   1.890       .  S
C1311      C1312   1.436       .  A
C1312     Br1313   1.919       .  S
C1317      C1318   1.422       .  A
C1317      C1322   1.414       .  A
C1317     Br1324   1.937       .  S
C1318      C1319   1.412       .  A
C1319      C1320   1.395       .  A
C1319     Br1326   1.933       .  S
C1320      C1321   1.412       .  A
C1320     Br1325   1.933   1_554  S
C1321      C1322   1.420       .  A
C1322     Br1323   1.936       .  S
C1327      C1328   1.408       .  A
C1327      C1332   1.415       .  A
C1327     Br1334   1.921       .  S
C1328      C1329   1.395       .  A
C1329      C1330   1.405       .  A
C1329     Br1336   1.916       .  S
C1330      C1331   1.409       .  A
C1330     Br1335   1.910       .  S
C1331      C1332   1.414       .  A
C1332     Br1333   1.931       .  S
C1337      C1338   1.421       .  A
C1337      C1342   1.430       .  A
C1337     Br1344   1.927       .  S
C1338      C1339   1.387       .  A
C1339      C1340   1.377       .  A
C1339     Br1346   1.884       .  S
C1340      C1341   1.411       .  A
C1340     Br1345   1.920       .  S
C1341      C1342   1.427       .  A
C1342     Br1343   1.929       .  S
C1347      C1348   1.416       .  A
C1347      C1352   1.406       .  A
C1347     Br1354   1.935       .  S
C1348      C1349   1.417       .  A
C1349      C1350   1.407       .  A
C1349     Br1356   1.933       .  S
C1350      C1351   1.409       .  A
C1350     Br1355   1.923       .  S
C1351      C1352   1.417       .  A
C1352     Br1353   1.935       .  S
C1357      C1358   1.409       .  A
C1357      C1362   1.411       .  A
C1357     Br1364   1.912       .  S
C1358      C1359   1.404       .  A
C1359      C1360   1.416       .  A
C1359     Br1366   1.918       .  S
C1360      C1361   1.420       .  A
C1360     Br1365   1.925       .  S
C1361      C1362   1.405       .  A
C1362     Br1363   1.911       .  S
C1367      C1368   1.376       .  A
C1367      C1372   1.379       .  A
C1367     Br1374   1.911       .  S
C1368      C1369   1.404       .  A
C1369      C1370   1.424       .  A
C1369     Br1376   1.922       .  S
C1370      C1371   1.434       .  A
C1370     Br1375   1.924       .  S
C1371      C1372   1.420       .  A
C1372     Br1373   1.892       .  S
C1377      C1378   1.407       .  A
C1377      C1382   1.415       .  A
C1377     Br1384   1.920       .  S
C1378      C1379   1.408       .  A
C1379      C1380   1.411       .  A
C1379     Br1386   1.926       .  S
C1380      C1381   1.403       .  A
C1380     Br1385   1.918       .  S
C1381      C1382   1.410       .  A
C1382     Br1383   1.926       .  S
C1387      C1388   1.418       .  A
C1387      C1392   1.411       .  A
C1387     Br1394   1.928       .  S
C1388      C1389   1.420       .  A
C1389      C1390   1.404       .  A
C1389     Br1396   1.934       .  S
C1390      C1391   1.409       .  A
C1390     Br1395   1.934       .  S
C1391      C1392   1.408       .  A
C1392     Br1393   1.929       .  S
