geometry optimzed in LAMMPS
_audit_creation_date              2020-11-30 
_audit_creation_method            'lammps2cif' 
_symmetry_space_group_name_H-M    'P1' 
_symmetry_Int_Tables_number       1 
_symmetry_cell_setting            triclinic 
loop_ 
_symmetry_equiv_pos_as_xyz 
  x,y,z 
_cell_length_a                    26.74402068 
_cell_length_b                    43.68651047031468 
_cell_length_c                    29.261659286222955 
_cell_angle_alpha                 85.66621112464256 
_cell_angle_beta                  94.92448277359547 
_cell_angle_gamma                 90.14298743606123 
loop_ 
_atom_site_label 
_atom_site_type_symbol 
_atom_site_fract_x 
_atom_site_fract_y 
_atom_site_fract_z 
_atom_site_charge 
N1          N  0.57326525  0.24822508  0.04683739    -0.35300
N2          N  0.49356002  0.29606825  0.04259346    -0.55900
N3          N  0.41777515  0.24844120  0.02699879    -0.35300
N4          N  0.49746872  0.20082513  0.03049287    -0.55900
C5          C  0.60192541  0.27400346  0.04633119     0.28300
C6          C  0.60375709  0.22412337  0.04085487     0.28300
C7          C  0.38741999  0.27260979  0.03309015     0.28300
C8          C  0.38963051  0.22241495  0.02949593     0.28300
C9          C  0.53436917  0.31457693  0.04653613     0.36900
C10         C  0.45214742  0.31437250  0.03935726     0.36900
C11         C  0.53881753  0.18284322  0.03053225     0.36900
C12         C  0.45686786  0.18237720  0.02505396     0.36900
C13         C  0.65136891  0.26579787  0.04194387    -0.20600
C14         C  0.65248045  0.23468631  0.03852679    -0.20600
C15         C  0.33931025  0.26173333  0.03838586    -0.20600
C16         C  0.34071322  0.23039161  0.03628533    -0.20600
C17         C  0.51861624  0.34482271  0.04634482    -0.21600
C18         C  0.46683668  0.34467540  0.04204398    -0.21600
C19         C  0.52430560  0.15280912  0.02475311    -0.21600
C20         C  0.47263027  0.15248157  0.02151980    -0.21600
C21         C  0.58560504  0.30507990  0.04754774    -0.17000
C22         C  0.58952963  0.19299936  0.03508247    -0.17000
C23         C  0.40587308  0.19148679  0.02602680    -0.17000
C24         C  0.40125140  0.30425139  0.03481458    -0.17000
H25         H  0.68357046  0.28076526  0.04020168     0.15900
H26         H  0.68553526  0.22153208  0.03346570     0.15900
H27         H  0.30648593  0.27492214  0.04403440     0.15900
H28         H  0.30902793  0.21517604  0.03972172     0.15900
H29         H  0.54202378  0.36498978  0.04863064     0.14200
H30         H  0.44277511  0.36466675  0.04067284     0.14200
H31         H  0.54842348  0.13309759  0.02339248     0.14200
H32         H  0.44931713  0.13242620  0.01734980     0.14200
H33         H  0.53549746  0.24716713  0.05212927     0.27500
H34         H  0.45470487  0.24979294  0.01881021     0.27500
N35         N  0.07537500  0.99518214  0.02240447    -0.35300
N36         N  0.99940355  0.04443509  0.02514310    -0.55900
N37         N  0.92066291  0.00250707  0.99228832    -0.35300
N38         N  0.99146953  0.45143525  0.02109457    -0.55900
C39         C  0.10606195  0.01966428  0.02870598     0.28300
C40         C  0.10150045  0.46959787  0.03053826     0.28300
C41         C  0.89185139  0.02563644  0.00473671     0.28300
C42         C  0.88725626  0.47754374  0.99284997     0.28300
C43         C  0.04141539  0.06140201  0.03296492     0.36900
C44         C  0.95952350  0.06372525  0.02421282     0.36900
C45         C  0.03007796  0.43158298  0.03363716     0.36900
C46         C  0.94838482  0.43478367  0.02022610     0.36900
C47         C  0.15540036  0.01036246  0.02673247    -0.20600
C48         C  0.15163897  0.47622420  0.02555121    -0.20600
C49         C  0.84267338  0.01557015  0.00587877    -0.20600
C50         C  0.83917275  0.48864603  0.97992622    -0.20600
C51         C  0.02799099  0.09161100  0.03744883    -0.21600
C52         C  0.97633694  0.09301898  0.03230361    -0.21600
C53         C  0.01133730  0.40207939  0.04007341    -0.21600
C54         C  0.95995106  0.40412584  0.03193488    -0.21600
C55         C  0.09182766  0.05069246  0.03379371    -0.17000
C56         C  0.08225331  0.43899968  0.03694935    -0.17000
C57         C  0.89854949  0.44636229  0.00864620    -0.17000
C58         C  0.90810538  0.05539814  0.01648943    -0.17000
H59         H  0.18890653  0.02424836  0.03003681     0.15900
H60         H  0.18250836  0.46012139  0.02708042     0.15900
H61         H  0.81062642  0.02821869  0.01484132     0.15900
H62         H  0.80458431  0.47573978  0.97787539     0.15900
H63         H  0.05286419  0.11074892  0.04345044     0.14200
H64         H  0.95379664  0.11343752  0.03351009     0.14200
H65         H  0.03252560  0.38113749  0.04947617     0.14200
H66         H  0.93410311  0.38504919  0.03358663     0.14200
H67         H  0.03687641  0.99505574  0.02401654     0.27500
H68         H  0.95812852  0.00391395  0.98566463     0.27500
O69         O  0.14550081  0.08282352  0.99149167    -0.79600
O70         O  0.34103255  0.15702284  0.99695171    -0.64300
O71         O  0.24629276  0.09211073  0.02058870    -1.10900
C72         C  0.19230013  0.15774618  0.12750042     1.07300
O73         O  0.35966976  0.15633613  0.07178675    -0.77500
O74         O  0.30931056  0.12345728  0.13533471    -0.65100
Ni75       Ni  0.20986541  0.07297558  0.97201326     1.34900
C76         C  0.28014201  0.10109912  0.14347359     0.86000
O77         O  0.32517786  0.10109943  0.96165323    -0.78000
O78         O  0.27133154  0.06237162  0.94849659    -0.88300
C79         C  0.36730221  0.16678371  0.03134865     0.85600
O80         O  0.20257709  0.10691677  0.92737844    -0.66500
O81         O  0.23756938  0.16731947  0.12883759    -0.85800
C82         C  0.22095541  0.13365227  0.92333057     0.86400
C83         C  0.31089876  0.07752212  0.94040561     1.08000
H84         H  0.24098648  0.16282232  0.03123797     0.39800
O85         O  0.25812785  0.14538317  0.04800124    -1.08400
O86         O  0.24225138  0.09499654  0.11610932    -0.65100
Ni87       Ni  0.20845641  0.11473576  0.05988309     1.26300
O88         O  0.25251378  0.14401845  0.95358924    -0.65300
O89         O  0.17371933  0.13928341  0.09869911    -0.77600
C90         C  0.13284767  0.07395010  0.03097283     0.85800
O91         O  0.15779510  0.08305731  0.06641635    -0.64800
Ni92       Ni  0.29700967  0.16105515  0.09839622     1.27400
Ni93       Ni  0.29327004  0.12390058  0.00552597     1.26100
H94         H  0.26465230  0.07609452  0.03935093     0.40400
O95         O  0.86608265  0.08615375  0.06590946    -0.79600
O96         O  0.66098293  0.16065467  0.06177312    -0.64300
O97         O  0.76064416  0.09862444  0.04986500    -1.10900
C98         C  0.79517795  0.16226560  0.91665208     1.07300
O99         O  0.63638925  0.16337088  0.98778070    -0.77500
O100        O  0.68425322  0.13154341  0.92716407    -0.65100
Ni101      Ni  0.80765558  0.08640279  0.10114430     1.34900
C102        C  0.70884531  0.10672796  0.92667414     0.86000
O103        O  0.68407352  0.10585032  0.10810352    -0.78000
O104        O  0.75497096  0.08366145  0.14229491    -0.88300
C105        C  0.63073936  0.17082431  0.02814920     0.85600
O106        O  0.82386862  0.12692278  0.11775480    -0.66500
O107        O  0.75345132  0.17551283  0.92060902    -0.85800
C108        C  0.79379387  0.14849121  0.12351307     0.86400
C109        C  0.70862326  0.09072171  0.14183690     1.08000
H110        H  0.75990478  0.16816865  0.01983167     0.39800
O111        O  0.74094103  0.15118635  0.00788835    -1.08400
O112        O  0.74469531  0.09841426  0.95635340    -0.65100
Ni113      Ni  0.78842129  0.11981681  0.99844833     1.26300
O114        O  0.75059416  0.15113213  0.10196957    -0.65300
O115        O  0.81449547  0.14161123  0.94610400    -0.77600
C116        C  0.86816794  0.07782248  0.02538768     0.85800
O117        O  0.83575435  0.08735298  0.99314816    -0.64800
Ni118      Ni  0.69755629  0.16831227  0.95700755     1.27400
Ni119      Ni  0.71089160  0.12914675  0.05761110     1.26100
H120        H  0.74366041  0.08044431  0.04024641     0.40400
O121        O  0.63580447  0.33608887  0.99983127    -0.79600
O122        O  0.82334759  0.41647032  0.98964685    -0.64300
O123        O  0.73590014  0.34981776  0.02309419    -1.10900
C124        C  0.69273298  0.41191958  0.13775159     1.07300
O125        O  0.85155925  0.41790568  0.06273046    -0.77500
O126        O  0.81051579  0.37903885  0.12651456    -0.65100
Ni127      Ni  0.69983729  0.32724599  0.97796554     1.34900
C128        C  0.78057053  0.35835081  0.14013027     0.86000
O129        O  0.80738392  0.36051632  0.95791442    -0.78000
O130        O  0.76116197  0.31767099  0.95101129    -0.88300
C131        C  0.85533315  0.42582054  0.02042140     0.85600
O132        O  0.68837210  0.35941529  0.93140652    -0.66500
O133        O  0.73800189  0.42086000  0.13513850    -0.85800
C134        C  0.70324150  0.38684456  0.92524362     0.86400
C135        C  0.79611674  0.33580755  0.93865265     1.08000
H136        H  0.72933762  0.42122303  0.03383738     0.39800
O137        O  0.74767873  0.40375184  0.04882250    -1.08400
O138        O  0.73882105  0.35315590  0.11778548    -0.65100
Ni139      Ni  0.70011938  0.37231803  0.06440746     1.26300
O140        O  0.73095325  0.40038611  0.95521733    -0.65300
O141        O  0.66901857  0.39635397  0.10732603    -0.77600
C142        C  0.62511864  0.32902483  0.04066002     0.85800
O143        O  0.65103387  0.33999490  0.07426814    -0.64800
Ni144      Ni  0.79224339  0.41828024  0.09656244     1.27400
Ni145      Ni  0.77866415  0.38259962  0.00374139     1.26100
H146        H  0.75715925  0.33496242  0.04152944     0.40400
O147        O  0.35033824  0.33614731  0.07596744    -0.79600
O148        O  0.15020672  0.40474679  0.07110798    -0.64300
O149        O  0.24693876  0.34234637  0.05263424    -1.10900
C150        C  0.27251290  0.40482894  0.91934646     1.07300
O151        O  0.12011805  0.39934674  0.00027834    -0.77500
O152        O  0.16428626  0.36452973  0.94222229    -0.65100
Ni153      Ni  0.28910668  0.32331628  0.10180149     1.34900
C154        C  0.19743759  0.34515118  0.93487446     0.86000
O155        O  0.17610850  0.34833575  0.11787035    -0.78000
O156        O  0.23045663  0.30849178  0.12879240    -0.88300
C157        C  0.11885286  0.41285365  0.03693894     0.85600
O158        O  0.29222629  0.35607782  0.14255559    -0.66500
O159        O  0.22626274  0.41117807  0.92134877    -0.85800
C160        C  0.27273978  0.38276664  0.14069358     0.86400
C161        C  0.19220116  0.32294693  0.13929960     1.08000
H162        H  0.23969133  0.41300658  0.02156254     0.39800
O163        O  0.22422370  0.39430519  0.01241231    -1.08400
O164        O  0.23964652  0.34286369  0.95838153    -0.65100
Ni165      Ni  0.27638976  0.36570964  0.00378851     1.26300
O166        O  0.24442649  0.39392930  0.10625883    -0.65300
O167        O  0.30012907  0.39044407  0.95228107    -0.77600
C168        C  0.35953527  0.32727506  0.03711222     0.85800
O169        O  0.33045701  0.33597988  0.00148263    -0.64800
Ni170      Ni  0.17516215  0.40473107  0.96260497     1.27400
Ni171      Ni  0.19893189  0.37239521  0.06488870     1.26100
H172        H  0.22795013  0.32583391  0.03929616     0.40400
N173        N  0.99784348  0.17005861  0.58634435    -0.35300
N174        N  0.07049255  0.16784820  0.52030063    -0.55900
N175        N  0.98413428  0.17009659  0.45285313    -0.35300
N176        N  0.91134327  0.17094895  0.51848451    -0.55900
C177        C  0.04080529  0.16267233  0.61277331     0.28300
C178        C  0.95933449  0.16193333  0.61178767     0.28300
C179        C  0.02129559  0.16024877  0.42917299     0.28300
C180        C  0.94053318  0.16494447  0.42783453     0.28300
C181        C  0.10189169  0.17574468  0.55616245     0.36900
C182        C  0.09404298  0.17388528  0.48165298     0.36900
C183        C  0.88828393  0.17810619  0.55538575     0.36900
C184        C  0.88171848  0.18128161  0.48086620     0.36900
C185        C  0.02943550  0.14897274  0.65489988    -0.20600
C186        C  0.97808017  0.14847672  0.65427429    -0.20600
C187        C  0.00085170  0.14758641  0.38959792    -0.20600
C188        C  0.94980461  0.15083803  0.38856607    -0.20600
C189        C  0.14670640  0.18629800  0.54039242    -0.21600
C190        C  0.14175423  0.18502077  0.49292126    -0.21600
C191        C  0.84255693  0.19222341  0.54136398    -0.21600
C192        C  0.83850422  0.19441028  0.49371258    -0.21600
C193        C  0.08949710  0.17218049  0.60242220    -0.17000
C194        C  0.90886486  0.17145651  0.60102033    -0.17000
C195        C  0.89402847  0.17757648  0.43578948    -0.17000
C196        C  0.07218934  0.16844640  0.43717644    -0.17000
H197        H  0.05553685  0.14143261  0.68387731     0.15900
H198        H  0.95694386  0.14064023  0.68282806     0.15900
H199        H  0.02083978  0.13895589  0.36257345     0.15900
H200        H  0.92277855  0.14503974  0.36089406     0.15900
H201        H  0.17933585  0.19399297  0.56081300     0.14200
H202        H  0.16978279  0.19157644  0.46949574     0.14200
H203        H  0.81549521  0.20041567  0.56309958     0.14200
H204        H  0.80758879  0.20439864  0.47125335     0.14200
H205        H  0.99516535  0.18462615  0.55640115     0.27500
H206        H  0.98854236  0.18481246  0.47926590     0.27500
N207        N  0.01215778  0.29934722  0.61042593    -0.35300
N208        N  0.92167181  0.30124556  0.54758702    -0.55900
N209        N  0.98920749  0.30144550  0.47497875    -0.35300
N210        N  0.07887456  0.29774367  0.53858985    -0.55900
C211        C  0.97561400  0.29273708  0.63877938     0.28300
C212        C  0.05642644  0.29178591  0.63447803     0.28300
C213        C  0.94408911  0.29846517  0.45109886     0.28300
C214        C  0.02471839  0.29511193  0.44675916     0.28300
C215        C  0.90173954  0.30911519  0.58600811     0.36900
C216        C  0.88919057  0.31097895  0.51148180     0.36900
C217        C  0.11325106  0.30363399  0.57325070     0.36900
C218        C  0.10089193  0.30373199  0.49920152     0.36900
C219        C  0.99677818  0.27993704  0.68079926    -0.20600
C220        C  0.04772712  0.27994760  0.67841971    -0.20600
C221        C  0.95117783  0.28990662  0.40740481    -0.20600
C222        C  0.00180812  0.28743233  0.40483482    -0.20600
C223        C  0.85547437  0.32311642  0.57439649    -0.21600
C224        C  0.84739887  0.32415996  0.52701125    -0.21600
C225        C  0.15808945  0.31265489  0.55604036    -0.21600
C226        C  0.15028290  0.31258041  0.50879377    -0.21600
C227        C  0.92559588  0.30361939  0.63098407    -0.17000
C228        C  0.10430613  0.29952039  0.62000301    -0.17000
C229        C  0.07682052  0.30033674  0.45513027    -0.17000
C230        C  0.89740235  0.30780695  0.46497441    -0.17000
H231        H  0.97762784  0.27320038  0.71108500     0.15900
H232        H  0.07514219  0.27289501  0.70651758     0.15900
H233        H  0.92299150  0.28730521  0.37920965     0.15900
H234        H  0.01962748  0.28231325  0.37444729     0.15900
H235        H  0.83057595  0.33205478  0.59748204     0.14200
H236        H  0.81507506  0.33401067  0.50633756     0.14200
H237        H  0.19266423  0.31843292  0.57544344     0.14200
H238        H  0.17758191  0.31848778  0.48436185     0.14200
H239        H  0.00793897  0.31350267  0.58017005     0.27500
H240        H  0.99534823  0.31216984  0.50536365     0.27500
N241        N  0.49170699  0.46160352  0.59184280    -0.35300
N242        N  0.40399290  0.45521121  0.52762730    -0.55900
N243        N  0.47510692  0.45428871  0.45787054    -0.35300
N244        N  0.56255117  0.46215697  0.52209499    -0.55900
C245        C  0.45362272  0.46710082  0.61759206     0.28300
C246        C  0.53451518  0.47035329  0.61511487     0.28300
C247        C  0.43075593  0.45520516  0.43181535     0.28300
C248        C  0.51166307  0.45852383  0.42884591     0.28300
C249        C  0.38369505  0.44715221  0.56748349     0.36900
C250        C  0.37410307  0.44337241  0.49382718     0.36900
C251        C  0.59487243  0.45707001  0.56007190     0.36900
C252        C  0.58623615  0.45354367  0.48606057     0.36900
C253        C  0.47221883  0.48059180  0.65696906    -0.20600
C254        C  0.52335416  0.48216101  0.65576372    -0.20600
C255        C  0.43942519  0.46086439  0.38584777    -0.20600
C256        C  0.49015016  0.46292208  0.38400880    -0.20600
C257        C  0.33974622  0.43090238  0.55888076    -0.21600
C258        C  0.33351404  0.42864678  0.51195983    -0.21600
C259        C  0.64032318  0.44651469  0.54789809    -0.21600
C260        C  0.63492979  0.44445472  0.50079980    -0.21600
C261        C  0.40507821  0.45440343  0.61116237    -0.17000
C262        C  0.58305995  0.46178624  0.60529147    -0.17000
C263        C  0.56355382  0.45329014  0.44048991    -0.17000
C264        C  0.38403465  0.44537843  0.44711408    -0.17000
H265        H  0.45146342  0.48657380  0.68522658     0.15900
H266        H  0.54946538  0.48972851  0.68288114     0.15900
H267        H  0.41240533  0.46123393  0.35610869     0.15900
H268        H  0.50904862  0.46564062  0.35270572     0.15900
H269        H  0.31533618  0.42119730  0.58379283     0.14200
H270        H  0.30345576  0.41680860  0.49349249     0.14200
H271        H  0.67354802  0.44061429  0.57060492     0.14200
H272        H  0.66306267  0.43642415  0.48001762     0.14200
H273        H  0.48990237  0.44682710  0.56560141     0.27500
H274        H  0.48047423  0.44558798  0.49182682     0.27500
N275        N  0.51728674  0.05337911  0.61004919    -0.35300
N276        N  0.42714828  0.04492103  0.54917496    -0.55900
N277        N  0.49399341  0.04168662  0.47871212    -0.35300
N278        N  0.58451708  0.04766606  0.53779925    -0.55900
C279        C  0.48250503  0.04815152  0.64075522     0.28300
C280        C  0.56296475  0.05151560  0.63402174     0.28300
C281        C  0.44968226  0.03261492  0.45853353     0.28300
C282        C  0.53021585  0.03226606  0.45341286     0.28300
C283        C  0.40517539  0.05257285  0.58639133     0.36900
C284        C  0.39283582  0.04963667  0.51272830     0.36900
C285        C  0.61672707  0.05998950  0.56929498     0.36900
C286        C  0.60349866  0.05319299  0.49668253     0.36900
C287        C  0.50681233  0.04295042  0.68460011    -0.20600
C288        C  0.55711836  0.04486855  0.68029649    -0.20600
C289        C  0.45794092  0.01670446  0.42099666    -0.20600
C290        C  0.50876270  0.01606839  0.41795290    -0.20600
C291        C  0.35555888  0.06098987  0.57393785    -0.21600
C292        C  0.34797356  0.05961811  0.52679267    -0.21600
C293        C  0.65753532  0.07247557  0.54860740    -0.21600
C294        C  0.64881551  0.06852211  0.50224318    -0.21600
C295        C  0.42959053  0.05094655  0.63123233    -0.17000
C296        C  0.60934284  0.05945238  0.61639210    -0.17000
C297        C  0.57921019  0.04443071  0.45489283    -0.17000
C298        C  0.40246168  0.04373821  0.46769669    -0.17000
H299        H  0.49071433  0.03942487  0.71716331     0.15900
H300        H  0.58584316  0.04282622  0.70869645     0.15900
H301        H  0.42994030  0.00794694  0.39710491     0.15900
H302        H  0.52745499  0.00708637  0.39050588     0.15900
H303        H  0.32801263  0.06776485  0.59628061     0.14200
H304        H  0.31343567  0.06477739  0.50556565     0.14200
H305        H  0.68943361  0.08391056  0.56500321     0.14200
H306        H  0.67272031  0.07645186  0.47582720     0.14200
H307        H  0.51028705  0.06196134  0.57609561     0.27500
H308        H  0.49813656  0.05880729  0.50156994     0.27500
C309        C  0.29047283  0.44906925  0.34415660     0.14000
C310        C  0.30877638  0.42495023  0.32095363     0.00900
C311        C  0.34192368  0.40338382  0.34507234     0.15900
C312        C  0.36105093  0.40771102  0.38994486     0.25300
C313        C  0.34736036  0.43375801  0.41143394    -0.41000
C314        C  0.30900207  0.45305386  0.38976959     0.32400
C315        C  0.29265916  0.42065453  0.27223852     0.01000
F316        F  0.35804580  0.37903233  0.32403220    -0.13300
F317        F  0.29317138  0.47733637  0.41115716    -0.13800
C318        C  0.32083084  0.43270678  0.23645622     0.15900
C319        C  0.31306322  0.42195480  0.19213646     0.25300
C320        C  0.27724048  0.39901278  0.18355111    -0.40900
C321        C  0.24744268  0.38865216  0.21889316     0.32300
C322        C  0.25499352  0.39931378  0.26262679     0.14000
F323        F  0.35770397  0.45341403  0.24522171    -0.13300
F324        F  0.21233132  0.36686406  0.21179408    -0.13800
F325        F  0.34212310  0.43263334  0.15865218    -0.16100
F326        F  0.22786701  0.38710947  0.29667778    -0.14700
F327        F  0.25664332  0.46940697  0.32209230    -0.14700
F328        F  0.39756068  0.38853506  0.41050758    -0.16100
C329        C  0.35534968  0.43504140  0.82705580     0.14000
C330        C  0.32340037  0.43162258  0.78681709     0.00900
C331        C  0.27518965  0.41966171  0.79080300     0.15900
C332        C  0.25962005  0.41054760  0.83396146     0.25300
C333        C  0.29187959  0.41332110  0.87433498    -0.41000
C334        C  0.34007642  0.42533857  0.87046987     0.32400
C335        C  0.34222345  0.43708907  0.74073386     0.01000
F336        F  0.24368011  0.41571389  0.75276619    -0.13300
F337        F  0.37188343  0.42820489  0.90858758    -0.13800
C338        C  0.38539839  0.42143931  0.73112581     0.15900
C339        C  0.40383749  0.42586633  0.68806946     0.25300
C340        C  0.37931062  0.44589012  0.65338835    -0.40900
C341        C  0.33439219  0.46021146  0.66187693     0.32300
C342        C  0.31634355  0.45623625  0.70555573     0.14000
F343        F  0.40977202  0.40168319  0.76358196    -0.13300
F344        F  0.30902140  0.47878084  0.62848892    -0.13800
F345        F  0.44685212  0.41129247  0.68056704    -0.16100
F346        F  0.27468912  0.47187243  0.71393824    -0.14700
F347        F  0.40131727  0.44792779  0.82418525    -0.14700
F348        F  0.21321701  0.39801960  0.83607496    -0.16100
C349        C  0.13926305  0.27774862  0.35276819     0.14000
C350        C  0.13393918  0.30492752  0.32348652     0.00900
C351        C  0.11730757  0.33182693  0.34133298     0.15900
C352        C  0.10222893  0.33085394  0.38593786     0.25300
C353        C  0.10582758  0.30342842  0.41424547    -0.41000
C354        C  0.12599024  0.27717556  0.39799626     0.32400
C355        C  0.14468355  0.30519283  0.27436410     0.01000
F356        F  0.11428215  0.35890992  0.31520350    -0.13300
F357        F  0.12846949  0.25031518  0.42464261    -0.13800
C358        C  0.11088998  0.31891041  0.23905119     0.15900
C359        C  0.12399228  0.32253022  0.19361412     0.25300
C360        C  0.17029325  0.31142668  0.18230165    -0.40900
C361        C  0.20107494  0.29430527  0.21679550     0.32300
C362        C  0.18936735  0.29232812  0.26241111     0.14000
F363        F  0.06564297  0.32959242  0.24869161    -0.13300
F364        F  0.24518898  0.28174670  0.20759220    -0.13800
F365        F  0.09228929  0.33793834  0.16113732    -0.16100
F366        F  0.22378417  0.27971101  0.29523958    -0.14700
F367        F  0.15429755  0.25121963  0.33686859    -0.14700
F368        F  0.08053946  0.35605714  0.40042666    -0.16100
C369        C  0.15778974  0.33874247  0.72032848     0.14000
C370        C  0.17642715  0.31327356  0.74881153     0.00900
C371        C  0.18593983  0.28573701  0.72908488     0.15900
C372        C  0.16987752  0.28247365  0.68280619     0.25300
C373        C  0.14353001  0.30650152  0.65662649    -0.41000
C374        C  0.14152429  0.33537703  0.67439358     0.32400
C375        C  0.18101722  0.31501565  0.79927174     0.01000
F376        F  0.20640409  0.26130126  0.75552174    -0.13300
F377        F  0.11829467  0.35929579  0.64879978    -0.13800
C378        C  0.13800781  0.32003388  0.82226032     0.15900
C379        C  0.14249317  0.32640234  0.86862166     0.25300
C380        C  0.19023265  0.32811400  0.89268330    -0.40900
C381        C  0.23282223  0.32019763  0.87038806     0.32300
C382        C  0.22812303  0.31387334  0.82408643     0.14000
F383        F  0.09174978  0.32015433  0.79908746    -0.13300
F384        F  0.27980148  0.32152916  0.89176844    -0.13800
F385        F  0.10036965  0.33259280  0.88912587    -0.16100
F386        F  0.27005822  0.30905965  0.80252081    -0.14700
F387        F  0.15183017  0.36623764  0.73799265    -0.14700
F388        F  0.17467770  0.25494133  0.66512173    -0.16100
C389        C  0.66714890  0.46240255  0.71627248     0.14000
C390        C  0.65778172  0.43287795  0.73629467     0.00900
C391        C  0.63053751  0.41193397  0.70947812     0.15900
C392        C  0.61149487  0.42072405  0.66455845     0.25300
C393        C  0.61748410  0.45089047  0.64584767    -0.41000
C394        C  0.64622187  0.47151318  0.67171335     0.32400
C395        C  0.67436049  0.42376604  0.78528415     0.01000
F396        F  0.61933033  0.38346525  0.72768559    -0.13300
F397        F  0.65074407  0.50103792  0.65519934    -0.13800
C398        C  0.66267115  0.44165731  0.82135091     0.15900
C399        C  0.67337810  0.43058482  0.86760598     0.25300
C400        C  0.69319841  0.40094814  0.87801586    -0.40900
C401        C  0.70404872  0.38320705  0.84186468     0.32300
C402        C  0.69751749  0.39511973  0.79647705     0.14000
F403        F  0.63880705  0.46907547  0.81192288    -0.13300
F404        F  0.72050606  0.35379603  0.85036604    -0.13800
F405        F  0.66130250  0.44778942  0.90182876    -0.16100
F406        F  0.71273962  0.37811199  0.76318747    -0.14700
F407        F  0.69538860  0.48263152  0.74025837    -0.14700
F408        F  0.58319678  0.40049035  0.64059952    -0.16100
C409        C  0.59415221  0.41252718  0.33772577     0.14000
C410        C  0.61630593  0.43617818  0.31137901     0.00900
C411        C  0.62902145  0.46376629  0.33152591     0.15900
C412        C  0.61733968  0.46814741  0.37646365     0.25300
C413        C  0.59264012  0.44509210  0.40186254    -0.41000
C414        C  0.58258151  0.41688490  0.38258482     0.32400
C415        C  0.63339388  0.43025814  0.26589128     0.01000
F416        F  0.65200702  0.48662020  0.30728844    -0.13300
F417        F  0.55852039  0.39427024  0.40634806    -0.13800
C418        C  0.60017359  0.42877726  0.22590329     0.15900
C419        C  0.61856988  0.42247836  0.18374780     0.25300
C420        C  0.67037743  0.41808232  0.18112022    -0.40900
C421        C  0.70273709  0.41864594  0.22192044     0.32300
C422        C  0.68438199  0.42454516  0.26346686     0.14000
F423        F  0.55023746  0.43346858  0.22764546    -0.13300
F424        F  0.75247156  0.41230837  0.22226782    -0.13800
F425        F  0.58607371  0.42099913  0.14570486    -0.16100
F426        F  0.71649070  0.42381241  0.30210707    -0.14700
F427        F  0.58377431  0.38518271  0.31991920    -0.14700
F428        F  0.62763250  0.49542976  0.39438728    -0.16100
C429        C  0.84653100  0.29715009  0.83889710     0.14000
C430        C  0.85283794  0.32277686  0.80764816     0.00900
C431        C  0.84402245  0.35222039  0.82143948     0.15900
C432        C  0.82895107  0.35609028  0.86514936     0.25300
C433        C  0.82070638  0.33052711  0.89608496    -0.41000
C434        C  0.82980283  0.30093817  0.88247956     0.32400
C435        C  0.86879763  0.31920161  0.76074574     0.01000
F436        F  0.84792183  0.37737655  0.79172530    -0.13300
F437        F  0.82276233  0.27577606  0.91131733    -0.13800
C438        C  0.84135070  0.30082104  0.72996997     0.15900
C439        C  0.85761519  0.29692618  0.68632401     0.25300
C440        C  0.90101772  0.31192304  0.67245098    -0.40900
C441        C  0.92621591  0.33199836  0.70209618     0.32300
C442        C  0.91109126  0.33500233  0.74603280     0.14000
F443        F  0.79878618  0.28666460  0.74225077    -0.11300
F444        F  0.96753478  0.34744736  0.68926902    -0.13800
F445        F  0.83200963  0.27777753  0.65837527    -0.16100
F446        F  0.93909233  0.35248240  0.77492300    -0.14700
F447        F  0.85697557  0.26849611  0.82729989    -0.14700
F448        F  0.81824016  0.38499524  0.87561281    -0.16100
C449        C  0.76082274  0.32971110  0.26255824     0.14000
C450        C  0.81019246  0.32866189  0.28306803     0.00900
C451        C  0.85014266  0.33302368  0.25486896     0.15900
C452        C  0.84082869  0.34010180  0.20738029     0.25300
C453        C  0.79130486  0.34288339  0.18699906    -0.41000
C454        C  0.75137393  0.33680454  0.21506514     0.32400
C455        C  0.82053829  0.32584661  0.33399110     0.01000
F456        F  0.89835897  0.33170847  0.27373927    -0.13300
F457        F  0.70294519  0.34074257  0.19750697    -0.13800
C458        C  0.80902154  0.29892098  0.36057267     0.15900
C459        C  0.82768565  0.29466684  0.40703337     0.25300
C460        C  0.85851421  0.31708833  0.42700207    -0.40900
C461        C  0.86468258  0.34535687  0.40190869     0.32300
C462        C  0.84568694  0.34973302  0.35587482     0.14000
F463        F  0.78342085  0.27581473  0.34070485    -0.13300
F464        F  0.89399461  0.36743420  0.42052374    -0.13800
F465        F  0.82045749  0.26741635  0.43100032    -0.16100
F466        F  0.85458917  0.37667364  0.33169373    -0.14700
F467        F  0.72159716  0.32625793  0.28900457    -0.14700
F468        F  0.88025395  0.34569485  0.18168233    -0.16100
C469        C  0.67684566  0.04703093  0.25213816     0.14000
C470        C  0.65248627  0.06975185  0.27390256     0.00900
C471        C  0.64374578  0.09877815  0.24979362     0.15900
C472        C  0.65827635  0.10467661  0.20514466     0.25300
C473        C  0.68413378  0.08230880  0.18438021    -0.41000
C474        C  0.69331220  0.05346593  0.20826439     0.32400
C475        C  0.63521614  0.06323376  0.32098766     0.01000
F476        F  0.62317105  0.12205764  0.27017227    -0.13300
F477        F  0.71878723  0.03159138  0.18909503    -0.13800
C478        C  0.66622781  0.04805677  0.35733483     0.15900
C479        C  0.64836644  0.04136649  0.40078571     0.25300
C480        C  0.60077326  0.05183167  0.40980086    -0.40900
C481        C  0.57104340  0.06824574  0.37406070     0.32300
C482        C  0.58685646  0.07238184  0.32991014     0.14000
F483        F  0.71401727  0.03998797  0.35115596    -0.13300
F484        F  0.52556133  0.07971884  0.38161881    -0.13800
F485        F  0.67726750  0.02438146  0.43371942    -0.16100
F486        F  0.55393255  0.08464616  0.29552121    -0.14700
F487        F  0.68487235  0.01855650  0.27327148    -0.14700
F488        F  0.65006632  0.13302295  0.18342465    -0.16100
C489        C  0.65031005  0.08619991  0.81244324     0.14000
C490        C  0.69343857  0.07896774  0.79101269     0.00900
C491        C  0.73897746  0.07373893  0.81805075     0.15900
C492        C  0.74222169  0.07848190  0.86502023     0.25300
C493        C  0.70027386  0.08947559  0.88520277    -0.41000
C494        C  0.65377759  0.09182087  0.85891480     0.32400
C495        C  0.68956964  0.07721150  0.74046440     0.01000
F496        F  0.78103112  0.06615374  0.79848564    -0.13300
F497        F  0.61237118  0.10165925  0.87740290    -0.13800
C498        C  0.66879391  0.10202625  0.71159741     0.15900
C499        C  0.64916144  0.09746405  0.66679912     0.25300
C500        C  0.65035332  0.06810859  0.65043357    -0.40900
C501        C  0.67791684  0.04469313  0.67681001     0.32300
C502        C  0.69762525  0.04921739  0.72166993     0.14000
F503        F  0.66277514  0.12978793  0.72845288    -0.13300
F504        F  0.67821016  0.01611994  0.66203687    -0.13800
F505        F  0.62302320  0.12051197  0.64176260    -0.16100
F506        F  0.71866788  0.02516772  0.74852319    -0.14700
F507        F  0.60498879  0.08906519  0.78772482    -0.14700
F508        F  0.78773159  0.07550035  0.88939156    -0.16100
C509        C  0.86151207  0.17649396  0.23018608     0.14000
C510        C  0.82164393  0.18948790  0.25045230     0.00900
C511        C  0.77561267  0.19475449  0.22452549     0.15900
C512        C  0.76803187  0.18464616  0.18021148     0.25300
C513        C  0.80659372  0.16878516  0.16134719    -0.41000
C514        C  0.85436769  0.16671495  0.18575466     0.32400
C515        C  0.82695554  0.19338251  0.30031928     0.01000
F516        F  0.73698198  0.20779205  0.24334856    -0.13300
F517        F  0.89320210  0.15288380  0.16832369    -0.13800
C518        C  0.86132454  0.21464016  0.31797581     0.15900
C519        C  0.87848430  0.21184844  0.36455014     0.25300
C520        C  0.86088080  0.18810540  0.39426829    -0.40900
C521        C  0.82238627  0.16897936  0.37749860     0.32300
C522        C  0.80563634  0.17152331  0.33063683     0.14000
F523        F  0.88203924  0.23602068  0.28923764    -0.13300
F524        F  0.80608739  0.14528371  0.40500385    -0.13800
F525        F  0.91766289  0.22934532  0.37928917    -0.16100
F526        F  0.77303549  0.15036870  0.31392725    -0.14700
F527        F  0.90613544  0.17062296  0.25508622    -0.14700
F528        F  0.72147380  0.18790208  0.15787772    -0.16100
C529        C  0.83384094  0.15510481  0.70292498     0.14000
C530        C  0.85316737  0.17767882  0.73143773     0.00900
C531        C  0.88256118  0.20143414  0.71299444     0.15900
C532        C  0.89629213  0.20102898  0.66808640     0.25300
C533        C  0.88008845  0.17724345  0.64064200    -0.41000
C534        C  0.84664757  0.15515288  0.65744991     0.32400
C535        C  0.84415772  0.17579896  0.78078162     0.01000
F536        F  0.90098684  0.22375910  0.73952855    -0.13300
F537        F  0.82945801  0.13245645  0.63106220    -0.13800
C538        C  0.86243417  0.15073633  0.81035257     0.15900
C539        C  0.85036037  0.14760993  0.85611754     0.25300
C540        C  0.81924122  0.16947034  0.87304504    -0.40900
C541        C  0.80384055  0.19558570  0.84381282     0.32300
C542        C  0.81632553  0.19867573  0.79826795     0.14000
F543        F  0.89090442  0.12881200  0.79445953    -0.13300
F544        F  0.77447212  0.21752374  0.85847530    -0.13800
F545        F  0.86639391  0.12209722  0.88266016    -0.16100
F546        F  0.79872745  0.22320910  0.77036801    -0.14700
F547        F  0.80415160  0.13241676  0.71976907    -0.14700
F548        F  0.92932638  0.22222011  0.65263145    -0.16100
C549        C  0.33168002  0.04026529  0.83166371     0.14000
C550        C  0.36392886  0.06113142  0.81031084     0.00900
C551        C  0.38553031  0.08479183  0.83555268     0.15900
C552        C  0.37165590  0.08898435  0.87982411     0.25300
C553        C  0.33739057  0.06878986  0.90046856    -0.41000
C554        C  0.32005454  0.04333576  0.87655401     0.32400
C555        C  0.37421302  0.05809305  0.76173734     0.01000
F556        F  0.41907021  0.10440389  0.81693722    -0.13300
F557        F  0.28866096  0.02229410  0.89512855    -0.13800
C558        C  0.37089450  0.08366009  0.72918507     0.15900
C559        C  0.38492757  0.08096943  0.68466763     0.25300
C560        C  0.39973736  0.05239118  0.67139030    -0.40900
C561        C  0.39764184  0.02631425  0.70225162     0.32300
C562        C  0.38717294  0.02931777  0.74748637     0.14000
F563        F  0.35538291  0.11138445  0.74077697    -0.13300
F564        F  0.41349791  0.99873183  0.69070470    -0.13800
F565        F  0.38730275  0.10654464  0.65554720    -0.16100
F566        F  0.39380336  0.00450805  0.77823253    -0.14700
F567        F  0.30852504  0.01785718  0.80803451    -0.14700
F568        F  0.38949265  0.11386961  0.90104779    -0.16100
C569        C  0.36059365  0.08459363  0.35355454     0.14000
C570        C  0.32370350  0.06475224  0.33560528     0.00900
C571        C  0.30483856  0.04149401  0.36554438     0.15900
C572        C  0.32684348  0.03616019  0.41103468     0.25300
C573        C  0.36764031  0.05403718  0.42687577    -0.41000
C574        C  0.38249579  0.07917013  0.39843528     0.32400
C575        C  0.30941409  0.06733840  0.28493658     0.01000
F576        F  0.26836887  0.02235332  0.34970652    -0.13300
F577        F  0.42129368  0.09710414  0.41309361    -0.13800
C578        C  0.34723398  0.06637279  0.25434855     0.15900
C579        C  0.33701786  0.07498935  0.20734928     0.25300
C580        C  0.28835782  0.08380761  0.18940284    -0.40900
C581        C  0.24954085  0.08214746  0.21934510     0.32300
C582        C  0.26002452  0.07416783  0.26673054     0.14000
F583        F  0.39490368  0.05840768  0.27053105    -0.13300
F584        F  0.20226867  0.09104520  0.20355620    -0.13800
F585        F  0.37526468  0.07610343  0.17965409    -0.16100
F586        F  0.22269595  0.07539617  0.29518700    -0.14700
F587        F  0.37749950  0.10839377  0.32656498    -0.14700
F588        F  0.31064435  0.01244511  0.43844668    -0.16100
C589        C  0.13144226  0.19909978  0.71875365     0.14000
C590        C  0.16927738  0.17778086  0.73478142     0.00900
C591        C  0.18831462  0.15891488  0.70319110     0.15900
C592        C  0.16657505  0.15946985  0.65746123     0.25300
C593        C  0.12542752  0.17885423  0.64277283    -0.41000
C594        C  0.11003728  0.19972518  0.67331169     0.32400
C595        C  0.18193550  0.17151689  0.78533315     0.01000
F596        F  0.22454404  0.13783979  0.71780326    -0.13300
F597        F  0.07004255  0.21834706  0.66039985    -0.13800
C598        C  0.14479216  0.15941352  0.81272468     0.15900
C599        C  0.15676511  0.14963268  0.85899708     0.25300
C600        C  0.20613424  0.15196755  0.87935875    -0.40900
C601        C  0.24269943  0.16601368  0.85288163     0.32300
C602        C  0.23070189  0.17560380  0.80614792     0.14000
F603        F  0.09731725  0.15523524  0.79383211    -0.13300
F604        F  0.29091875  0.16807811  0.87108023    -0.13800
F605        F  0.12051996  0.13619026  0.88336674    -0.16100
F606        F  0.26699753  0.18798706  0.78088334    -0.14700
F607        F  0.11249266  0.21770926  0.74821719    -0.14700
F608        F  0.18229617  0.13893963  0.62915743    -0.16100
C609        C  0.16389760  0.19391610  0.23446504     0.14000
C610        C  0.13409926  0.17118919  0.25482105     0.00900
C611        C  0.11525710  0.14726737  0.22887512     0.15900
C612        C  0.12914177  0.14486782  0.18421469     0.25300
C613        C  0.16292727  0.16611211  0.16534188    -0.41000
C614        C  0.17775940  0.19162520  0.18996092     0.32400
C615        C  0.12350062  0.17234471  0.30338822     0.01000
F616        F  0.08508287  0.12554386  0.24752829    -0.13300
F617        F  0.20854086  0.21334771  0.17212441    -0.13800
C618        C  0.09322498  0.19585082  0.31604490     0.15900
C619        C  0.08191800  0.19667337  0.36163772     0.25300
C620        C  0.09972299  0.17351902  0.39527366    -0.40900
C621        C  0.13114036  0.15039600  0.38278719     0.32300
C622        C  0.14323645  0.14993866  0.33714193     0.14000
F623        F  0.07220778  0.21697262  0.28364090    -0.13300
F624        F  0.14626410  0.12683699  0.41375218    -0.13800
F625        F  0.04914821  0.21825523  0.37211424    -0.16100
F626        F  0.17257005  0.12697427  0.32542739    -0.14700
F627        F  0.18242531  0.21724148  0.25888938    -0.14700
F628        F  0.11318183  0.12024066  0.16133541    -0.16100
N629        N  0.57731797  0.75034016  0.98645024    -0.35300
N630        N  0.50261113  0.80001326  0.98597210    -0.55900
N631        N  0.42261297  0.75492184  0.96769378    -0.35300
N632        N  0.49782449  0.70550524  0.96751428    -0.55900
C633        C  0.60818043  0.77507256  0.98726086     0.28300
C634        C  0.60584953  0.72561536  0.97973875     0.28300
C635        C  0.39460353  0.77972041  0.97560590     0.28300
C636        C  0.39213979  0.72982009  0.96852542     0.28300
C637        C  0.54468756  0.81720237  0.99114252     0.36900
C638        C  0.46290573  0.81925013  0.98566997     0.36900
C639        C  0.53781338  0.68653315  0.96678232     0.36900
C640        C  0.45588883  0.68826465  0.96141457     0.36900
C641        C  0.65692234  0.76559035  0.98275134    -0.20600
C642        C  0.65546121  0.73470509  0.97809521    -0.20600
C643        C  0.34543758  0.77032091  0.97957432    -0.20600
C644        C  0.34394270  0.73918210  0.97528291    -0.20600
C645        C  0.53163383  0.84760511  0.99443540    -0.21600
C646        C  0.47996575  0.84888880  0.99117768    -0.21600
C647        C  0.52109198  0.65713972  0.95929344    -0.21600
C648        C  0.46940539  0.65819511  0.95612224    -0.21600
C649        C  0.59464778  0.80626573  0.99067931    -0.17000
C650        C  0.58921256  0.69516915  0.97296009    -0.17000
C651        C  0.40582935  0.69845166  0.96445190    -0.17000
C652        C  0.41151961  0.81051691  0.98106595    -0.17000
H653        H  0.69040820  0.77952428  0.98207344     0.15900
H654        H  0.68752629  0.72074878  0.97278475     0.15900
H655        H  0.31383742  0.78426679  0.98619352     0.15900
H656        H  0.31090575  0.72497186  0.97754922     0.15900
H657        H  0.55671078  0.86688329  0.99851778     0.14200
H658        H  0.45758946  0.86937430  0.99240142     0.14200
H659        H  0.54375679  0.63690411  0.95707954     0.14200
H660        H  0.44460080  0.63889183  0.95114276     0.14200
H661        H  0.53959649  0.75016986  0.99188536     0.27500
H662        H  0.45976584  0.75537342  0.96019815     0.27500
N663        N  0.07500961  0.49646226  0.02584070    -0.35300
N664        N  0.00268897  0.54657332  0.99358905    -0.55900
N665        N  0.91992419  0.50147582  0.99157025    -0.35300
N666        N  0.99721064  0.95351774  0.98942074    -0.55900
C667        C  0.10743645  0.51973124  0.01597225     0.28300
C668        C  0.10464134  0.97091859  0.01454602     0.28300
C669        C  0.89304635  0.52763489  0.97961055     0.28300
C670        C  0.89056696  0.97761565  0.98747797     0.28300
C671        C  0.04540734  0.56346265  0.99815054     0.36900
C672        C  0.96320396  0.56650894  0.98643068     0.36900
C673        C  0.03706691  0.93450944  0.98788688     0.36900
C674        C  0.95549405  0.93784008  0.97555069     0.36900
C675        C  0.15533235  0.50749820  0.01641876    -0.20600
C676        C  0.15451706  0.97995751  0.01794794    -0.20600
C677        C  0.84278475  0.51995476  0.97154301    -0.20600
C678        C  0.84187750  0.98552812  0.99514325    -0.20600
C679        C  0.03294012  0.59439597  0.99294704    -0.21600
C680        C  0.98121544  0.59630802  0.98616408    -0.21600
C681        C  0.02033152  0.90681407  0.97203912    -0.21600
C682        C  0.96896899  0.90891814  0.96435158    -0.21600
C683        C  0.09565773  0.55164654  0.00538074    -0.17000
C684        C  0.08832904  0.94149195  0.00084734    -0.17000
C685        C  0.90513067  0.94751831  0.97784830    -0.17000
C686        C  0.91114314  0.55848236  0.97972026    -0.17000
H687        H  0.18954497  0.51971741  0.00983565     0.15900
H688        H  0.18718303  0.96654038  0.01265719     0.15900
H689        H  0.81142182  0.53539499  0.96192357     0.15900
H690        H  0.80902399  0.97099000  0.99399907     0.15900
H691        H  0.05847139  0.61362870  0.99447028     0.14200
H692        H  0.95937742  0.61730095  0.98110990     0.14200
H693        H  0.04250864  0.88679316  0.96738192     0.14200
H694        H  0.94417517  0.89089677  0.95284085     0.14200
H695        H  0.03738451  0.49888813  0.03083062     0.27500
H696        H  0.95778520  0.50039552  0.00169061     0.27500
O697        O  0.14299530  0.57930111  0.95077151    -0.79600
O698        O  0.34014091  0.66282695  0.93989027    -0.64300
O699        O  0.24645902  0.59681702  0.96597335    -1.10900
C700        C  0.19918232  0.66248325  0.07869722     1.07300
O701        O  0.35915227  0.66594312  0.01385969    -0.77500
O702        O  0.31087192  0.63705973  0.08266212    -0.65100
Ni703      Ni  0.20247570  0.58261785  0.91706485     1.34900
C704        C  0.29253329  0.61034541  0.08881157     0.86000
O705        O  0.32477367  0.60643782  0.90693213    -0.78000
O706        O  0.25606624  0.58306270  0.87732215    -0.88300
C707        C  0.36646982  0.67443148  0.97263029     0.85600
O708        O  0.18157393  0.62248543  0.89167165    -0.66500
O709        O  0.23703874  0.67876361  0.06903208    -0.85800
C710        C  0.21077729  0.64343079  0.87762582     0.86400
C711        C  0.30130442  0.59195396  0.87522246     1.08000
H712        H  0.23704035  0.66604493  0.97588119     0.39800
O713        O  0.25800111  0.65049022  0.99334886    -1.08400
O714        O  0.26005744  0.59901632  0.06028911    -0.65100
Ni715      Ni  0.21427278  0.61747673  0.01116373     1.26300
O716        O  0.25317952  0.64847085  0.89866949    -0.65300
O717        O  0.18467735  0.63915932  0.05718415    -0.77600
C718        C  0.13823895  0.57281618  0.99326600     0.85800
O719        O  0.16901891  0.58341234  0.02401110    -0.64800
Ni720      Ni  0.29620865  0.67132858  0.03935107     1.27400
Ni721      Ni  0.29325274  0.62921761  0.95073568     1.26100
H722        H  0.26517619  0.57942966  0.98071516     0.40400
O723        O  0.85932736  0.58956971  0.01948333    -0.79600
O724        O  0.65935098  0.66258757  0.00108130    -0.64300
O725        O  0.75804877  0.60059732  0.98885161    -1.10900
C726        C  0.80268036  0.66746742  0.86582205     1.07300
O727        O  0.63615261  0.66491979  0.92694418    -0.77500
O728        O  0.68766258  0.62907715  0.87488482    -0.65100
Ni729      Ni  0.79469167  0.58088275  0.04202032     1.34900
C730        C  0.72085627  0.60948915  0.86846543     0.86000
O731        O  0.67716425  0.60699790  0.04274298    -0.78000
O732        O  0.73386060  0.57081975  0.07050454    -0.88300
C733        C  0.62939080  0.67228325  0.96708178     0.85600
O734        O  0.80277978  0.61560563  0.07711901    -0.66500
O735        O  0.75605970  0.67413708  0.86346707    -0.85800
C736        C  0.78179909  0.64171594  0.07554074     0.86400
C737        C  0.69270931  0.58532866  0.07190650     1.08000
H738        H  0.75665269  0.67252685  0.96399231     0.39800
O739        O  0.74149516  0.65453765  0.95103849    -1.08400
O740        O  0.76100305  0.60547249  0.89468542    -0.65100
Ni741      Ni  0.79399151  0.62519980  0.94528619     1.26300
O742        O  0.74777425  0.65089830  0.04447679    -0.65300
O743        O  0.82542516  0.65119993  0.89969420    -0.77600
C744        C  0.87149786  0.58284819  0.98056850     0.85800
O745        O  0.84671949  0.59441066  0.94409688    -0.64800
Ni746      Ni  0.69875504  0.66839021  0.89793502     1.27400
Ni747      Ni  0.70860653  0.63105509  0.99677354     1.26100
H748        H  0.74097215  0.58450212  0.97310580     0.40400
O749        O  0.64917460  0.83652453  0.94667982    -0.79600
O750        O  0.83730742  0.91532076  0.94816151    -0.64300
O751        O  0.74886600  0.84799473  0.97452160    -1.10900
C752        C  0.69993877  0.90943405  0.08804719     1.07300
O753        O  0.86191130  0.91044685  0.02194754    -0.77500
O754        O  0.81734282  0.87450558  0.08482209    -0.65100
Ni755      Ni  0.71417656  0.82688610  0.92757098     1.34900
C756        C  0.78783343  0.85258051  0.09397338     0.86000
O757        O  0.82310134  0.85997567  0.91198564    -0.78000
O758        O  0.77708358  0.81707886  0.90395904    -0.88300
C759        C  0.86641345  0.92307210  0.98211073     0.85600
O760        O  0.70649885  0.85948141  0.88135562    -0.66500
O761        O  0.74577084  0.91780196  0.08830965    -0.85800
C762        C  0.72257014  0.88668613  0.87600625     0.86400
C763        C  0.81202503  0.83541358  0.89209623     1.08000
H764        H  0.74184476  0.91859736  0.98900713     0.39800
O765        O  0.75957861  0.90074370  0.00349980    -1.08400
O766        O  0.74724048  0.84817702  0.06937156    -0.65100
Ni767      Ni  0.71145757  0.86938039  0.01576259     1.26300
O768        O  0.74734956  0.90004668  0.90811831    -0.65300
O769        O  0.67860498  0.89248823  0.05823837    -0.77600
C770        C  0.63610242  0.82884063  0.98657206     0.85800
O771        O  0.66155845  0.83768406  0.02186158    -0.64800
Ni772      Ni  0.80227156  0.91362949  0.05339863     1.27400
Ni773      Ni  0.79247923  0.88100767  0.95807916     1.26100
H774        H  0.76955091  0.83266118  0.99283830     0.40400
O775        O  0.36807559  0.84487995  0.02465528    -0.79600
O776        O  0.16150840  0.90947557  0.02499042    -0.64300
O777        O  0.26260630  0.84934218  0.00890528    -1.10900
C778        C  0.28206844  0.90573206  0.86977767     1.07300
O779        O  0.12937649  0.90955930  0.95262676    -0.77500
O780        O  0.17221732  0.86569283  0.90631314    -0.65100
Ni781      Ni  0.31039225  0.83499790  0.05809223     1.34900
C782        C  0.20501783  0.84680953  0.89657169     0.86000
O783        O  0.19299137  0.85645089  0.07496096    -0.78000
O784        O  0.25722419  0.82323965  0.09497612    -0.88300
C785        C  0.12843801  0.91867818  0.99279878     0.85600
O786        O  0.31739930  0.87179709  0.08977958    -0.66500
O787        O  0.23486764  0.90925205  0.87088911    -0.85800
C788        C  0.29104167  0.89610239  0.08871340     0.86400
C789        C  0.21613281  0.83589003  0.10253821     1.08000
H790        H  0.25005414  0.91969318  0.97305924     0.39800
O791        O  0.23508179  0.90008992  0.96532098    -1.08400
O792        O  0.24985282  0.84724692  0.91465705    -0.65100
Ni793      Ni  0.28800893  0.87173251  0.95708491     1.26300
O794        O  0.25547440  0.90300091  0.05799406    -0.65300
O795        O  0.31061910  0.89541615  0.90475891    -0.77600
C796        C  0.37225391  0.83425937  0.98596733     0.85800
O797        O  0.34042043  0.84213293  0.95250279    -0.64800
Ni798      Ni  0.18524059  0.90801441  0.91492699     1.27400
Ni799      Ni  0.21239211  0.87869595  0.01939798     1.26100
H800        H  0.24527669  0.83142470  0.99845357     0.40400
N801        N  0.99933581  0.66879813  0.53554623    -0.35300
N802        N  0.07379987  0.67043524  0.46990854    -0.55900
N803        N  0.99000164  0.67733368  0.40140342    -0.35300
N804        N  0.91551226  0.67443570  0.46775084    -0.55900
C805        C  0.04119747  0.65850109  0.56109879     0.28300
C806        C  0.96017113  0.66152786  0.56046021     0.28300
C807        C  0.02848091  0.66984372  0.37714836     0.28300
C808        C  0.94710502  0.67064284  0.37623769     0.28300
C809        C  0.10407641  0.67515927  0.50786672     0.36900
C810        C  0.09911545  0.67965596  0.43352970     0.36900
C811        C  0.89157594  0.68104029  0.50454332     0.36900
C812        C  0.88557429  0.68376870  0.42990656     0.36900
C813        C  0.02837257  0.64362898  0.60199159    -0.20600
C814        C  0.97713902  0.64560502  0.60164062    -0.20600
C815        C  0.00990626  0.65759594  0.33678442    -0.20600
C816        C  0.95854810  0.65803345  0.33624622    -0.20600
C817        C  0.14972075  0.68685774  0.49579571    -0.21600
C818        C  0.14660652  0.68964590  0.44823770    -0.21600
C819        C  0.84521507  0.69416000  0.49020657    -0.21600
C820        C  0.84123724  0.69571563  0.44254168    -0.21600
C821        C  0.09025193  0.66787545  0.55266475    -0.17000
C822        C  0.91130668  0.67358359  0.55029192    -0.17000
C823        C  0.89848701  0.68019732  0.38484545    -0.17000
C824        C  0.07934674  0.67751270  0.38778490    -0.17000
H825        H  0.05364998  0.63413471  0.63037533     0.15900
H826        H  0.95518539  0.63773603  0.62959954     0.15900
H827        H  0.03117954  0.65014651  0.30976235     0.15900
H828        H  0.93246805  0.65112626  0.30857940     0.15900
H829        H  0.18172994  0.69257126  0.51873266     0.14200
H830        H  0.17572221  0.69797840  0.42704016     0.14200
H831        H  0.81719035  0.70142200  0.51172520     0.14200
H832        H  0.80950495  0.70446246  0.41994032     0.14200
H833        H  0.99846197  0.68490256  0.50738840     0.27500
H834        H  0.99270101  0.69085308  0.42933691     0.27500
N835        N  0.02065665  0.79601339  0.56717245    -0.35300
N836        N  0.93330800  0.79431157  0.50022014    -0.55900
N837        N  0.00588495  0.79650693  0.43223604    -0.35300
N838        N  0.09237599  0.79704938  0.49951317    -0.55900
C839        C  0.98239304  0.78940064  0.59354652     0.28300
C840        C  0.06386777  0.78982311  0.59390213     0.28300
C841        C  0.96301365  0.79096266  0.40622232     0.28300
C842        C  0.04425793  0.79266726  0.40600880     0.28300
C843        C  0.91012234  0.80244211  0.53680994     0.36900
C844        C  0.90196839  0.80180144  0.46225375     0.36900
C845        C  0.12375306  0.80392618  0.53590733     0.36900
C846        C  0.11531227  0.80577817  0.46139523     0.36900
C847        C  0.00137713  0.77794866  0.63703699    -0.20600
C848        C  0.05259308  0.77870204  0.63750838    -0.20600
C849        C  0.97456184  0.78278327  0.36346760    -0.20600
C850        C  0.02562091  0.78373305  0.36339882    -0.20600
C851        C  0.86271463  0.81398072  0.52221963    -0.21600
C852        C  0.85741515  0.81336653  0.47484716    -0.21600
C853        C  0.16783393  0.81624290  0.52101670    -0.21600
C854        C  0.16241159  0.81749051  0.47350694    -0.21600
C855        C  0.93229805  0.79959908  0.58272813    -0.17000
C856        C  0.11257267  0.79832798  0.58204415    -0.17000
C857        C  0.09419888  0.80226090  0.41622998    -0.17000
C858        C  0.91420406  0.79874663  0.41667622    -0.17000
H859        H  0.98045708  0.77192736  0.66646590     0.15900
H860        H  0.07825688  0.77331164  0.66753955     0.15900
H861        H  0.94888982  0.77944319  0.33374745     0.15900
H862        H  0.04622593  0.78097560  0.33375912     0.15900
H863        H  0.83523787  0.82244290  0.54328985     0.14200
H864        H  0.82516781  0.82130307  0.45221594     0.14200
H865        H  0.20013044  0.82374335  0.54208744     0.14200
H866        H  0.18975617  0.82609604  0.45056895     0.14200
H867        H  0.01748600  0.80954907  0.53633488     0.27500
H868        H  0.00821925  0.80803862  0.46202404     0.27500
N869        N  0.50502618  0.95561861  0.54141028    -0.35300
N870        N  0.41738824  0.95353406  0.47697512    -0.55900
N871        N  0.48697521  0.94531587  0.40744093    -0.35300
N872        N  0.57499163  0.94919022  0.47332187    -0.55900
C873        C  0.46829988  0.96347725  0.56732948     0.28300
C874        C  0.54919122  0.96229314  0.56460001     0.28300
C875        C  0.44271880  0.94255400  0.38179349     0.28300
C876        C  0.52403711  0.93987008  0.38026568     0.28300
C877        C  0.39329014  0.95193492  0.51582884     0.36900
C878        C  0.38272004  0.95007850  0.44138730     0.36900
C879        C  0.60818495  0.94572284  0.51072819     0.36900
C880        C  0.59955325  0.94293289  0.43685200     0.36900
C881        C  0.48936437  0.97589933  0.60666262    -0.20600
C882        C  0.54035311  0.97532687  0.60487245    -0.20600
C883        C  0.45206190  0.93429253  0.33842532    -0.20600
C884        C  0.50284446  0.93254298  0.33749382    -0.20600
C885        C  0.34243914  0.94763906  0.50487823    -0.21600
C886        C  0.33563226  0.94705515  0.45754896    -0.21600
C887        C  0.65463412  0.93730710  0.49815876    -0.21600
C888        C  0.64947809  0.93628459  0.45095531    -0.21600
C889        C  0.41728060  0.95506204  0.56039864    -0.17000
C890        C  0.59658439  0.95122149  0.55544244    -0.17000
C891        C  0.57670404  0.94177316  0.39165638    -0.17000
C892        C  0.39368506  0.94772766  0.39517726    -0.17000
H893        H  0.47006868  0.98289635  0.63504210     0.15900
H894        H  0.56797641  0.98174798  0.63167485     0.15900
H895        H  0.42514762  0.92976602  0.31004842     0.15900
H896        H  0.52184464  0.92639727  0.30828179     0.15900
H897        H  0.31321755  0.94541667  0.52824909     0.14200
H898        H  0.30035922  0.94371048  0.43755865     0.14200
H899        H  0.68870922  0.93295725  0.52041116     0.14200
H900        H  0.67871596  0.93030691  0.42983388     0.14200
H901        H  0.50060218  0.94085604  0.51513170     0.27500
H902        H  0.49173918  0.95315317  0.43992005     0.27500
N903        N  0.53424657  0.56720375  0.54966780    -0.35300
N904        N  0.44332684  0.55751281  0.49080828    -0.55900
N905        N  0.50718946  0.55761692  0.41742369    -0.35300
N906        N  0.59887737  0.56570813  0.47545630    -0.55900
C907        C  0.50018480  0.56129774  0.58077880     0.28300
C908        C  0.58032589  0.56406332  0.57270557     0.28300
C909        C  0.46388258  0.54699373  0.39721223     0.28300
C910        C  0.54399169  0.55133088  0.39069626     0.28300
C911        C  0.42171212  0.56477104  0.52859785     0.36900
C912        C  0.40724630  0.55962928  0.45539938     0.36900
C913        C  0.63173057  0.57683622  0.50747600     0.36900
C914        C  0.61577541  0.57396517  0.43426241     0.36900
C915        C  0.52480797  0.55404765  0.62380951    -0.20600
C916        C  0.57518917  0.55566264  0.61874938    -0.20600
C917        C  0.47365835  0.53332906  0.35761427    -0.20600
C918        C  0.52434078  0.53538745  0.35414729    -0.20600
C919        C  0.37086690  0.57023798  0.51763917    -0.21600
C920        C  0.36171121  0.56704543  0.47102455    -0.21600
C921        C  0.67083841  0.59156208  0.48681992    -0.21600
C922        C  0.66033167  0.59006946  0.43999090    -0.21600
C923        C  0.44771099  0.56575773  0.57268298    -0.17000
C924        C  0.62623849  0.57310636  0.55489634    -0.17000
C925        C  0.59119679  0.56592305  0.39242038    -0.17000
C926        C  0.41556975  0.55402105  0.40969915    -0.17000
H927        H  0.50815333  0.54911461  0.65597330     0.15900
H928        H  0.60451099  0.55263067  0.64651528     0.15900
H929        H  0.44725757  0.52367206  0.33267451     0.15900
H930        H  0.54396998  0.52814859  0.32592078     0.15900
H931        H  0.34338336  0.57599837  0.54070980     0.14200
H932        H  0.32580605  0.56967481  0.45103605     0.14200
H933        H  0.70285208  0.60265326  0.50363644     0.14200
H934        H  0.68280477  0.59966600  0.41342840     0.14200
H935        H  0.52643420  0.57760056  0.51674072     0.27500
H936        H  0.50982427  0.57363771  0.44204084     0.27500
C937        C  0.33178284  0.97176250  0.27866538     0.14000
C938        C  0.31193686  0.94372008  0.26595178     0.00900
C939        C  0.30729109  0.91959171  0.29990757     0.15900
C940        C  0.32767935  0.92235460  0.34520943     0.25300
C941        C  0.35273391  0.94937737  0.35694872    -0.41000
C942        C  0.35196673  0.97461352  0.32372314     0.32400
C943        C  0.30694188  0.93729151  0.21695916     0.01000
F944        F  0.28831305  0.89218898  0.28792705    -0.13300
F945        F  0.37773557  0.00045650  0.33256204    -0.13800
C946        C  0.34987970  0.92890151  0.19626586     0.15900
C947        C  0.34546259  0.91753502  0.15269609     0.25300
C948        C  0.29805387  0.91519843  0.12849729    -0.40900
C949        C  0.25535720  0.92569455  0.14817675     0.32300
C950        C  0.25985049  0.93650545  0.19221017     0.14000
F951        F  0.39590386  0.92996146  0.21959252    -0.13300
F952        F  0.20864867  0.92265241  0.12687382    -0.13800
F953        F  0.38720797  0.90726744  0.13525811    -0.16100
F954        F  0.21803838  0.94470465  0.21163498    -0.14700
F955        F  0.33699241  0.99519475  0.24622262    -0.14700
F956        F  0.32926182  0.89729278  0.37568350    -0.16100
C957        C  0.36839777  0.93123894  0.77703875     0.14000
C958        C  0.33613951  0.92871665  0.73676405     0.00900
C959        C  0.28732297  0.91772486  0.74075183     0.15900
C960        C  0.27097843  0.90928339  0.78395033     0.25300
C961        C  0.30236667  0.91286391  0.82452859    -0.41000
C962        C  0.35156147  0.92358680  0.82062852     0.32400
C963        C  0.35444701  0.93509380  0.69046349     0.01000
F964        F  0.25587186  0.91412834  0.70259543    -0.13300
F965        F  0.38303702  0.92706198  0.85880929    -0.13800
C966        C  0.39396282  0.91752564  0.67758894     0.15900
C967        C  0.41183268  0.92310300  0.63429281     0.25300
C968        C  0.39124837  0.94682247  0.60292324    -0.40900
C969        C  0.35130136  0.96433531  0.61558108     0.32300
C970        C  0.33247283  0.95817332  0.65878666     0.14000
F971        F  0.41545263  0.89490729  0.70719240    -0.13300
F972        F  0.33238789  0.98833159  0.58727675    -0.13800
F973        F  0.45088806  0.90598782  0.62353041    -0.16100
F974        F  0.29477989  0.97587558  0.67077063    -0.14700
F975        F  0.41616871  0.94128360  0.77407895    -0.14700
F976        F  0.22471381  0.89657060  0.78592597    -0.16100
C977        C  0.16704441  0.78982949  0.31515391     0.14000
C978        C  0.15353386  0.81617017  0.28613851     0.00900
C979        C  0.12679397  0.83987127  0.30311046     0.15900
C980        C  0.11147144  0.83653473  0.34769228     0.25300
C981        C  0.12352509  0.80971175  0.37617927    -0.41000
C982        C  0.15240819  0.78671909  0.36001738     0.32400
C983        C  0.16845277  0.81922021  0.23854155     0.01000
F984        F  0.11458099  0.86589778  0.27611995    -0.13300
F985        F  0.16270538  0.76021381  0.38637390    -0.13800
C986        C  0.13230295  0.82164195  0.20046656     0.15900
C987        C  0.14719335  0.82640425  0.15562781     0.25300
C988        C  0.19839074  0.82813627  0.14844460    -0.40900
C989        C  0.23435380  0.82460868  0.18677647     0.32300
C990        C  0.21946244  0.82027621  0.23122945     0.14000
F991        F  0.08273591  0.81905787  0.20678502    -0.13300
F992        F  0.28425528  0.82688137  0.18153201    -0.13800
F993        F  0.11185129  0.82894232  0.11936852    -0.16100
F994        F  0.25499312  0.81807666  0.26741332    -0.14700
F995        F  0.19210758  0.76644403  0.29912575    -0.14700
F996        F  0.08165070  0.85840330  0.36198986    -0.16100
C997        C  0.16568474  0.83522572  0.68572400     0.14000
C998        C  0.18096163  0.80902479  0.71446739     0.00900
C999        C  0.18836956  0.78130790  0.69430780     0.15900
C1000       C  0.17400358  0.77908368  0.64731637     0.25300
C1001       C  0.15035435  0.80400202  0.62085726    -0.41000
C1002       C  0.14994491  0.83265565  0.63940742     0.32400
C1003       C  0.18388749  0.81074703  0.76524435     0.01000
F1004       F  0.20510915  0.75585771  0.72062013    -0.13300
F1005       F  0.12948302  0.85746296  0.61387979    -0.13800
C1006       C  0.14241166  0.82208690  0.78535907     0.15900
C1007       C  0.14733440  0.83072368  0.83052551     0.25300
C1008       C  0.19368519  0.82740473  0.85718887    -0.40900
C1009       C  0.23295343  0.81168005  0.83909714     0.32300
C1010       C  0.22839890  0.80405825  0.79318901     0.14000
F1011       F  0.09774751  0.82682324  0.76004119    -0.13300
F1012       F  0.27750223  0.80610650  0.86428532    -0.13800
F1013       F  0.10785916  0.84486605  0.84643157    -0.16100
F1014       F  0.26888994  0.79262597  0.77511612    -0.14700
F1015       F  0.16238672  0.86292021  0.70346868    -0.14700
F1016       F  0.17804742  0.75184138  0.62870218    -0.16100
C1017       C  0.69690152  0.95011022  0.65600921     0.14000
C1018       C  0.67675685  0.92756171  0.68597926     0.00900
C1019       C  0.63554364  0.91026399  0.66978752     0.15900
C1020       C  0.61338904  0.91623686  0.62528658     0.25300
C1021       C  0.63048570  0.94049760  0.59644012    -0.41000
C1022       C  0.67325761  0.95699051  0.61152228     0.32400
C1023       C  0.69828518  0.92069917  0.73397032     0.01000
F1024       F  0.61546010  0.88820702  0.69786980    -0.13300
F1025       F  0.69049470  0.98047666  0.58418584    -0.13800
C1026       C  0.69236630  0.94098253  0.76845297     0.15900
C1027       C  0.70293285  0.93110738  0.81533319     0.25300
C1028       C  0.71673282  0.90038519  0.82786437    -0.40900
C1029       C  0.72387482  0.88072194  0.79273570     0.32300
C1030       C  0.71648781  0.89107350  0.74667724     0.14000
F1031       F  0.67296648  0.96943645  0.75685864    -0.13300
F1032       F  0.73633522  0.85071928  0.80279550    -0.13800
F1033       F  0.69608505  0.95069858  0.84811694    -0.16100
F1034       F  0.72367107  0.87128421  0.71415395    -0.14700
F1035       F  0.73874598  0.96563504  0.67014366    -0.14700
F1036       F  0.57263247  0.89965999  0.61121705    -0.16100
C1037       C  0.64546421  0.91067292  0.29846927     0.14000
C1038       C  0.63496108  0.93393733  0.26312526     0.00900
C1039       C  0.61466929  0.96194487  0.27353580     0.15900
C1040       C  0.60284916  0.96604191  0.31816674     0.25300
C1041       C  0.60821835  0.94152576  0.35236529    -0.41000
C1042       C  0.63111858  0.91415217  0.34262378     0.32400
C1043       C  0.64580494  0.92924720  0.21550517     0.01000
F1044       F  0.60319177  0.98455844  0.23981303    -0.13300
F1045       F  0.63585353  0.88999364  0.37469291    -0.13800
C1046       C  0.62463556  0.90467435  0.19211428     0.15900
C1047       C  0.63870386  0.89924035  0.14829328     0.25300
C1048       C  0.67332356  0.91881472  0.12709654    -0.40900
C1049       C  0.69112240  0.94467372  0.14954080     0.32300
C1050       C  0.67870921  0.94921532  0.19366679     0.14000
F1051       F  0.59177813  0.88539371  0.21241997    -0.13300
F1052       F  0.72343556  0.96466809  0.12991753    -0.13800
F1053       F  0.62129416  0.87378528  0.12832219    -0.16100
F1054       F  0.70176298  0.97193967  0.21647500    -0.14700
F1055       F  0.66805328  0.88420190  0.28972687    -0.14700
F1056       F  0.58045713  0.99263396  0.32668107    -0.16100
C1057       C  0.85263365  0.79703229  0.78867763     0.14000
C1058       C  0.86011304  0.82272161  0.75788812     0.00900
C1059       C  0.85654295  0.85221138  0.77372095     0.15900
C1060       C  0.84594302  0.85596418  0.81894748     0.25300
C1061       C  0.83600272  0.83034029  0.84916502    -0.41000
C1062       C  0.83990020  0.80081030  0.83354201     0.32400
C1063       C  0.87403864  0.81902517  0.71014541     0.01000
F1064       F  0.86120251  0.87765444  0.74472973    -0.13300
F1065       F  0.83102676  0.77557251  0.86161950    -0.13800
C1066       C  0.84682945  0.79967637  0.68046964     0.15900
C1067       C  0.86333138  0.79458014  0.63724308     0.25300
C1068       C  0.90594125  0.80982340  0.62213310    -0.40900
C1069       C  0.93027459  0.83116050  0.65022455     0.32300
C1070       C  0.91592266  0.83467982  0.69425560     0.14000
F1071       F  0.80491687  0.78520389  0.69369029    -0.11300
F1072       F  0.97120056  0.84662650  0.63649587    -0.13800
F1073       F  0.83945080  0.77355707  0.61140848    -0.16100
F1074       F  0.94524542  0.85187965  0.72255060    -0.14700
F1075       F  0.85808846  0.76820087  0.77550188    -0.14700
F1076       F  0.84087532  0.88500207  0.83164110    -0.16100
C1077       C  0.77245197  0.82309241  0.21610696     0.14000
C1078       C  0.82273801  0.81891161  0.23347925     0.00900
C1079       C  0.86024698  0.81959894  0.20252928     0.15900
C1080       C  0.84823290  0.82724606  0.15547792     0.25300
C1081       C  0.79847438  0.83427664  0.13855655    -0.41000
C1082       C  0.76033207  0.83053320  0.16895869     0.32400
C1083       C  0.83690949  0.81580528  0.28384522     0.01000
F1084       F  0.90887137  0.81406826  0.21825950    -0.13300
F1085       F  0.71180973  0.83696051  0.15387571    -0.13800
C1086       C  0.82765054  0.78850037  0.31022703     0.15900
C1087       C  0.84847319  0.78390171  0.35596885     0.25300
C1088       C  0.87751642  0.80691345  0.37630860    -0.40900
C1089       C  0.88286739  0.83527063  0.35105301     0.32300
C1090       C  0.86316923  0.83957540  0.30509277     0.14000
F1091       F  0.80138060  0.76556895  0.29065898    -0.13300
F1092       F  0.91121765  0.85776257  0.36970998    -0.13800
F1093       F  0.84453299  0.75601424  0.37895584    -0.16100
F1094       F  0.87180362  0.86643852  0.28058269    -0.14700
F1095       F  0.73548157  0.82208794  0.24520878    -0.14700
F1096       F  0.88549001  0.82918435  0.12667918    -0.16100
C1097       C  0.65485590  0.55075335  0.18577559     0.14000
C1098       C  0.64183322  0.57770460  0.20569347     0.00900
C1099       C  0.63834327  0.60556245  0.17847308     0.15900
C1100       C  0.64817163  0.60671776  0.13259765     0.25300
C1101       C  0.66572705  0.58047787  0.11363822    -0.41000
C1102       C  0.66793730  0.55227466  0.14029833     0.32400
C1103       C  0.63233905  0.57731896  0.25478697     0.01000
F1104       F  0.62894270  0.63228160  0.19713890    -0.13300
F1105       F  0.68447176  0.52655774  0.12291895    -0.13800
C1106       C  0.66715799  0.56404663  0.28945664     0.15900
C1107       C  0.65630437  0.56230563  0.33555774     0.25300
C1108       C  0.61122356  0.57469740  0.34749184    -0.40900
C1109       C  0.57933069  0.59094235  0.31328348     0.32300
C1110       C  0.58881210  0.59130189  0.26732185     0.14000
F1111       F  0.71132059  0.55247994  0.27859255    -0.13300
F1112       F  0.53635637  0.60413362  0.32412946    -0.13800
F1113       F  0.68857732  0.54735254  0.36799046    -0.16100
F1114       F  0.55407167  0.60408016  0.23490154    -0.14700
F1115       F  0.65631907  0.52319915  0.21067664    -0.14700
F1116       F  0.64561727  0.63449457  0.10831032    -0.16100
C1117       C  0.66756371  0.58809003  0.75232901     0.14000
C1118       C  0.71179418  0.58546565  0.73008777     0.00900
C1119       C  0.75818497  0.58392417  0.75631982     0.15900
C1120       C  0.76063600  0.58824682  0.80336552     0.25300
C1121       C  0.71656414  0.59435270  0.82473695    -0.41000
C1122       C  0.66986882  0.59275409  0.79911056     0.32400
C1123       C  0.70814260  0.58657583  0.67926649     0.01000
F1124       F  0.80132656  0.58043139  0.73594063    -0.13300
F1125       F  0.62657022  0.59764444  0.81858293    -0.13800
C1126       C  0.68393123  0.61181196  0.65410562     0.15900
C1127       C  0.66354821  0.60911422  0.60913024     0.25300
C1128       C  0.66756047  0.58126270  0.58881029    -0.40900
C1129       C  0.69929364  0.55806399  0.61096769     0.32300
C1130       C  0.71954976  0.56068439  0.65635801     0.14000
F1131       F  0.67491071  0.63773710  0.67497496    -0.13300
F1132       F  0.70478138  0.53132593  0.59109099    -0.13800
F1133       F  0.63367402  0.63194979  0.58793589    -0.16100
F1134       F  0.74497818  0.53661379  0.67947235    -0.14700
F1135       F  0.62200183  0.58769174  0.72799625    -0.14700
F1136       F  0.80664383  0.58950126  0.82671199    -0.16100
C1137       C  0.85166558  0.66686977  0.18293758     0.14000
C1138       C  0.81350166  0.68176658  0.20286124     0.00900
C1139       C  0.76788386  0.68866268  0.17684100     0.15900
C1140       C  0.75901835  0.67840489  0.13258697     0.25300
C1141       C  0.79562428  0.66077225  0.11435796    -0.41000
C1142       C  0.84291664  0.65652041  0.13909655     0.32400
C1143       C  0.82158890  0.68796907  0.25179027     0.01000
F1144       F  0.73142059  0.70424320  0.19496202    -0.13300
F1145       F  0.87986223  0.64073606  0.12191181    -0.13800
C1146       C  0.85655355  0.71024386  0.26475262     0.15900
C1147       C  0.87693718  0.70999801  0.31023429     0.25300
C1148       C  0.86273077  0.68751193  0.34363830    -0.40900
C1149       C  0.82393168  0.66710518  0.33162687     0.32300
C1150       C  0.80365764  0.66720201  0.28572290     0.14000
F1151       F  0.87474366  0.73021102  0.23242220    -0.13300
F1152       F  0.81010068  0.64483949  0.36290578    -0.13800
F1153       F  0.91563804  0.72904289  0.32045190    -0.16100
F1154       F  0.77080374  0.64489424  0.27347541    -0.14700
F1155       F  0.89654280  0.66065185  0.20722871    -0.14700
F1156       F  0.71339615  0.68367340  0.10926886    -0.16100
C1157       C  0.83972470  0.65931818  0.65504275     0.14000
C1158       C  0.85938406  0.68270046  0.68178246     0.00900
C1159       C  0.88792885  0.70611311  0.66148443     0.15900
C1160       C  0.90029936  0.70475391  0.61620629     0.25300
C1161       C  0.88372404  0.68020818  0.59036859    -0.41000
C1162       C  0.85193108  0.65803292  0.60955233     0.32400
C1163       C  0.85142236  0.68215889  0.73122554     0.01000
F1164       F  0.90631451  0.72921332  0.68649916    -0.13300
F1165       F  0.83642622  0.63379664  0.58564893    -0.13800
C1166       C  0.87799901  0.66138722  0.76349897     0.15900
C1167       C  0.86626156  0.65859040  0.80948684     0.25300
C1168       C  0.82809283  0.67688371  0.82379470    -0.40900
C1169       C  0.80559463  0.69993553  0.79209486     0.32300
C1170       C  0.81643322  0.70204657  0.74615756     0.14000
F1171       F  0.91399621  0.64303551  0.74999490    -0.13300
F1172       F  0.77037366  0.71921109  0.80480535    -0.13800
F1173       F  0.88946211  0.63646513  0.83884308    -0.16100
F1174       F  0.79058144  0.72236034  0.71561068    -0.14700
F1175       F  0.81033182  0.63713971  0.67362960    -0.14700
F1176       F  0.93224062  0.72585543  0.59877680    -0.16100
C1177       C  0.31301742  0.57616354  0.75051892     0.14000
C1178       C  0.36390992  0.58180236  0.74534882     0.00900
C1179       C  0.39503321  0.59037627  0.78363106     0.15900
C1180       C  0.37533024  0.59353209  0.82607273     0.25300
C1181       C  0.32449655  0.58694800  0.83164199    -0.41000
C1182       C  0.29381603  0.57791133  0.79303399     0.32400
C1183       C  0.38383870  0.57837458  0.69997456     0.01000
F1184       F  0.44474460  0.59530182  0.78018570    -0.13300
F1185       F  0.24433572  0.57152309  0.79546894    -0.13800
C1186       C  0.41146854  0.60205656  0.67877023     0.15900
C1187       C  0.43055506  0.59837145  0.63643778     0.25300
C1188       C  0.42027923  0.57163534  0.61335528    -0.40900
C1189       C  0.39105407  0.54855140  0.63351308     0.32300
C1190       C  0.37415479  0.55147118  0.67695986     0.14000
F1191       F  0.42004218  0.62876139  0.69899126    -0.13300
F1192       F  0.38099776  0.52258541  0.61195945    -0.13800
F1193       F  0.46066866  0.62045073  0.61858829    -0.16100
F1194       F  0.34988311  0.52752466  0.69738761    -0.14700
F1195       F  0.28118623  0.56962093  0.71384156    -0.14700
F1196       F  0.40607940  0.60305221  0.86152079    -0.16100
C1197       C  0.34734284  0.59647247  0.30702163     0.14000
C1198       C  0.33161508  0.57203558  0.28057999     0.00900
C1199       C  0.33269937  0.54207866  0.30170817     0.15900
C1200       C  0.35435025  0.53642139  0.34692086     0.25300
C1201       C  0.37572328  0.56038741  0.37129902    -0.41000
C1202       C  0.36948814  0.59065958  0.35193011     0.32400
C1203       C  0.32269182  0.57745165  0.22979667     0.01000
F1204       F  0.31802784  0.51803140  0.27702324    -0.13300
F1205       F  0.38985298  0.61429655  0.37463814    -0.13800
C1206       C  0.36176640  0.58940602  0.20467580     0.15900
C1207       C  0.35337683  0.59771250  0.15756208     0.25300
C1208       C  0.30590478  0.59357096  0.13420754    -0.40900
C1209       C  0.26789733  0.57925671  0.15870106     0.32300
C1210       C  0.27614273  0.57141050  0.20619533     0.14000
F1211       F  0.40798769  0.59374405  0.22624062    -0.13300
F1212       F  0.22146604  0.57517651  0.13750776    -0.13800
F1213       F  0.39119506  0.61097958  0.13512139    -0.16100
F1214       F  0.23789770  0.55951193  0.22945949    -0.14700
F1215       F  0.34522872  0.62578728  0.28788516    -0.14700
F1216       F  0.36074562  0.50719104  0.36464860    -0.16100
C1217       C  0.12946859  0.69815931  0.66586101     0.14000
C1218       C  0.16331935  0.67550611  0.68573782     0.00900
C1219       C  0.18012560  0.65315022  0.65816286     0.15900
C1220       C  0.16021190  0.65221529  0.61237003     0.25300
C1221       C  0.12411900  0.67391916  0.59363618    -0.41000
C1222       C  0.11066854  0.69763675  0.62001539     0.32400
C1223       C  0.17591736  0.67293282  0.73617906     0.01000
F1224       F  0.21211633  0.63057048  0.67673173    -0.13300
F1225       F  0.07550165  0.71860695  0.60231626    -0.13800
C1226       C  0.13729735  0.66942019  0.76596903     0.15900
C1227       C  0.14860162  0.66257207  0.81313171     0.25300
C1228       C  0.19869365  0.65912099  0.83144502    -0.40900
C1229       C  0.23744490  0.66462335  0.80191196     0.32300
C1230       C  0.22604612  0.67156977  0.75474602     0.14000
F1231       F  0.08840786  0.67045985  0.74899753    -0.13300
F1232       F  0.28639261  0.66049756  0.81775790    -0.13800
F1233       F  0.11046794  0.65756696  0.84051987    -0.16100
F1234       F  0.26399841  0.67567751  0.72690147    -0.14700
F1235       F  0.11277464  0.71993670  0.69161536    -0.14700
F1236       F  0.17243427  0.62857215  0.58784709    -0.16100
C1237       C  0.17486534  0.70201143  0.18493083     0.14000
C1238       C  0.15657594  0.67763549  0.21274790     0.00900
C1239       C  0.14527697  0.64960841  0.19357262     0.15900
C1240       C  0.15403537  0.64560994  0.14791672     0.25300
C1241       C  0.17530673  0.66943772  0.12073739    -0.41000
C1242       C  0.18397058  0.69802609  0.13943450     0.32400
C1243       C  0.14618768  0.68187568  0.26084548     0.01000
F1244       F  0.12610463  0.62592480  0.21927136    -0.13300
F1245       F  0.20335137  0.72188595  0.11426435    -0.13800
C1246       C  0.11208430  0.70463105  0.26965513     0.15900
C1247       C  0.09523578  0.70545391  0.31331238     0.25300
C1248       C  0.11093367  0.68305283  0.34859666    -0.40900
C1249       C  0.14885513  0.66222543  0.34128458     0.32300
C1250       C  0.16655814  0.66170900  0.29758707     0.14000
F1251       F  0.09152016  0.72430845  0.23501330    -0.13300
F1252       F  0.16578317  0.64093666  0.37524737    -0.13800
F1253       F  0.05944340  0.72617094  0.31996493    -0.16100
F1254       F  0.20168508  0.64057321  0.29052406    -0.14700
F1255       F  0.18591421  0.72939091  0.20240545    -0.14700
F1256       F  0.14431357  0.61780470  0.13138781    -0.16100
loop_ 
_geom_bond_atom_site_label_1 
_geom_bond_atom_site_label_2 
_geom_bond_distance 
_geom_bond_site_symmetry_2 
_ccdc_geom_bond_type 
N1            C6   1.364       .  A
N1            C5   1.361       .  A
N1           H33   1.035       .  S
N2            C9   1.359       .  A
N2           C10   1.360       .  A
N3            C8   1.363       .  A
N3            C7   1.365       .  A
N3           H34   1.037       .  S
N4           C11   1.358       .  A
N4           C12   1.356       .  A
C5           C13   1.390       .  A
C5           C21   1.431       .  A
C6           C22   1.429       .  A
C6           C14   1.387       .  A
C7           C15   1.388       .  A
C7           C24   1.434       .  A
C8           C23   1.434       .  A
C8           C16   1.389       .  A
C9           C21   1.430       .  A
C9           C17   1.387       .  A
C10          C24   1.429       .  A
C10          C18   1.386       .  A
C11          C19   1.386       .  A
C11          C22   1.424       .  A
C12          C20   1.387       .  A
C12          C23   1.425       .  A
C13          C14   1.371       .  A
C13          H25   1.082       .  S
C14          H26   1.082       .  S
C15          C16   1.376       .  A
C15          H27   1.082       .  S
C16          H28   1.082       .  S
C17          C18   1.380       .  A
C17          H29   1.082       .  S
C18          H30   1.082       .  S
C19          C20   1.377       .  A
C19          H31   1.082       .  S
C20          H32   1.082       .  S
C21         C142   1.500       .  S
C22         C105   1.506       .  S
C23          C79   1.500       .  S
C24         C168   1.513       .  S
N35          C39   1.360   1_565  A
N35         C668   1.364       .  A
N35          H67   1.035       .  S
N36          C43   1.357   1_655  A
N36          C44   1.358       .  A
N37          C41   1.362   1_556  A
N37         C670   1.360   1_545  A
N37          H68   1.038       .  S
N38          C45   1.358   1_655  A
N38          C46   1.361       .  A
C39          C47   1.389       .  A
C39          C55   1.431       .  A
C40         N663   1.364       .  A
C40          C56   1.436       .  A
C40          C48   1.389       .  A
C41          C49   1.388       .  A
C41          C58   1.427       .  A
C42         N665   1.361       .  A
C42          C57   1.429   1_556  A
C42          C50   1.387       .  A
C43          C55   1.426       .  A
C43          C51   1.387       .  A
C44          C58   1.425       .  A
C44          C52   1.386       .  A
C45          C53   1.387       .  A
C45          C56   1.429       .  A
C46          C54   1.386       .  A
C46          C57   1.431       .  A
C47         C676   1.372   1_545  A
C47          H59   1.082       .  S
C48         C675   1.377       .  A
C48          H60   1.082       .  S
C49         C678   1.372   1_544  A
C49          H61   1.082       .  S
C50         C677   1.376       .  A
C50          H62   1.082       .  S
C51          C52   1.378   1_455  A
C51          H63   1.082       .  S
C52          H64   1.082       .  S
C53          C54   1.376   1_455  A
C53          H65   1.082       .  S
C54          H66   1.082       .  S
C55          C90   1.497       .  S
C56         C157   1.506       .  S
C57         C131   1.509       .  S
C58         C116   1.503       .  S
O69         Ni75   1.919       .  S
O69          C90   1.264   1_556  A
O70         Ni93   1.944   1_556  S
O70          C79   1.277   1_556  A
O71         Ni75   1.899   1_554  S
O71         Ni93   1.922       .  S
O71         Ni87   1.923       .  S
O71          H94   0.964       .  S
C72         C613   1.479       .  S
C72          O89   1.279       .  A
C72          O81   1.278       .  A
O73         Ni92   1.925       .  S
O73          C79   1.269       .  A
O74         Ni92   1.910       .  S
O74          C76   1.270       .  A
Ni75         O78   1.907       .  S
Ni75         O80   1.899       .  S
C76         C580   1.491       .  S
C76          O86   1.277       .  A
O77         Ni93   1.938   1_556  S
O77          C83   1.284       .  A
O78          C83   1.277       .  A
O80          C82   1.267       .  A
O81         Ni92   1.918       .  S
C82         C600   1.487       .  S
C82          O88   1.277       .  A
C83         C553   1.491       .  S
H84          O85   0.968       .  S
O85         Ni93   1.921       .  S
O85         Ni87   1.918       .  S
O85         Ni92   1.900       .  S
O86         Ni87   1.950       .  S
Ni87         O91   1.945       .  S
Ni87         O89   1.917       .  S
O88         Ni93   1.946   1_556  S
C90          O91   1.273       .  A
O95        Ni101   1.945       .  S
O95         C116   1.272       .  A
O96        Ni119   1.937       .  S
O96         C105   1.272       .  A
O97        Ni101   1.917       .  S
O97        Ni119   1.925       .  S
O97        Ni113   1.911   1_554  S
O97         H120   0.962       .  S
C98         C540   1.490       .  S
C98         O115   1.278       .  A
C98         O107   1.276       .  A
O99        Ni118   1.938       .  S
O99         C105   1.270   1_556  A
O100       Ni118   1.904       .  S
O100        C102   1.271       .  A
Ni101       O104   1.928       .  S
Ni101       O106   1.910       .  S
C102        C493   1.477       .  S
C102        O112   1.271       .  A
O103       Ni119   1.919       .  S
O103        C109   1.278       .  A
O104        C109   1.277       .  A
O106        C108   1.271       .  A
O107       Ni118   1.920       .  S
C108        C513   1.487       .  S
C108        O114   1.269       .  A
C109        C473   1.478       .  S
H110        O111   0.968       .  S
O111       Ni119   1.917       .  S
O111       Ni113   1.922   1_554  S
O111       Ni118   1.914   1_554  S
O112       Ni113   1.918       .  S
Ni113       O117   1.927       .  S
Ni113       O115   1.923       .  S
O114       Ni119   1.919       .  S
C116        O117   1.272   1_554  A
O121       Ni127   1.929       .  S
O121        C142   1.268   1_556  A
O122       Ni145   1.942   1_556  S
O122        C131   1.277   1_556  A
O123       Ni127   1.903   1_554  S
O123       Ni145   1.913       .  S
O123       Ni139   1.930       .  S
O123        H146   0.965       .  S
C124        C420   1.491       .  S
C124        O141   1.284       .  A
C124        O133   1.278       .  A
O125       Ni144   1.941       .  S
O125        C131   1.272       .  A
O126       Ni144   1.910       .  S
O126        C128   1.270       .  A
Ni127       O130   1.940       .  S
Ni127       O132   1.888       .  S
C128        C453   1.488       .  S
C128        O138   1.273       .  A
O129       Ni145   1.922   1_556  S
O129        C135   1.279       .  A
O130        C135   1.282       .  A
O132        C134   1.266       .  A
O133       Ni144   1.922       .  S
C134        C400   1.473       .  S
C134        O140   1.278       .  A
C135        C433   1.491       .  S
H136        O137   0.964       .  S
O137       Ni145   1.912       .  S
O137       Ni139   1.926       .  S
O137       Ni144   1.902       .  S
O138       Ni139   1.934       .  S
Ni139       O143   1.948       .  S
Ni139       O141   1.938       .  S
O140       Ni145   1.943   1_556  S
C142        O143   1.277       .  A
O147       Ni153   1.926       .  S
O147        C168   1.272       .  A
O148       Ni171   1.954       .  S
O148        C157   1.278       .  A
O149       Ni153   1.892       .  S
O149       Ni171   1.913       .  S
O149       Ni165   1.917       .  S
O149        H172   0.968       .  S
C150        C333   1.477       .  S
C150        O167   1.288       .  A
C150        O159   1.276       .  A
O151       Ni170   1.917   1_554  S
O151        C157   1.266       .  A
O152       Ni170   1.911       .  S
O152        C154   1.270       .  A
Ni153       O156   1.906       .  S
Ni153       O158   1.928       .  S
C154        C380   1.487       .  S
C154        O164   1.271       .  A
O155       Ni171   1.948       .  S
O155        C161   1.288       .  A
O156        C161   1.275       .  A
O158        C160   1.274       .  A
O159       Ni170   1.906       .  S
C160        C320   1.483       .  S
C160        O166   1.274       .  A
C161        C360   1.486       .  S
H162        O163   0.961       .  S
O163       Ni171   1.920       .  S
O163       Ni165   1.920       .  S
O163       Ni170   1.905   1_554  S
O164       Ni165   1.923   1_556  S
Ni165       O169   1.955       .  S
Ni165       O167   1.938   1_554  S
O166       Ni171   1.935       .  S
C168        O169   1.280       .  A
N173        C178   1.353       .  A
N173        C177   1.354   1_655  A
N173        H205   1.041       .  S
N174        C181   1.352       .  A
N174        C182   1.350       .  A
N175        C180   1.350       .  A
N175        C179   1.348   1_655  A
N175        H206   1.041       .  S
N176        C183   1.345       .  A
N176        C184   1.349       .  A
C177        C185   1.386       .  A
C177        C193   1.416       .  A
C178        C194   1.416       .  A
C178        C186   1.388       .  A
C179        C187   1.390       .  A
C179        C196   1.411       .  A
C180        C195   1.406       .  A
C180        C188   1.385       .  A
C181        C193   1.418       .  A
C181        C189   1.386       .  A
C182        C196   1.417       .  A
C182        C190   1.387       .  A
C183        C191   1.387       .  A
C183        C194   1.409       .  A
C184        C192   1.384       .  A
C184        C195   1.408       .  A
C185        C186   1.372   1_455  A
C185        H197   1.083       .  S
C186        H198   1.082       .  S
C187        C188   1.370   1_455  A
C187        H199   1.083       .  S
C188        H200   1.083       .  S
C189        C190   1.389       .  A
C189        H201   1.082       .  S
C190        H202   1.082       .  S
C191        C192   1.385       .  A
C191        H203   1.082       .  S
C192        H204   1.082       .  S
C193        C593   1.503       .  S
C194        C533   1.483       .  S
C195        C520   1.485       .  S
C196        C620   1.486       .  S
N207        C212   1.353       .  A
N207        C211   1.352   1_455  A
N207        H239   1.039       .  S
N208        C215   1.352       .  A
N208        C216   1.352       .  A
N209        C214   1.353   1_655  A
N209        C213   1.353       .  A
N209        H240   1.037       .  S
N210        C217   1.348       .  A
N210        C218   1.347       .  A
C211        C219   1.387       .  A
C211        C227   1.415       .  A
C212        C228   1.415       .  A
C212        C220   1.387       .  A
C213        C221   1.387       .  A
C213        C230   1.416       .  A
C214        C229   1.415       .  A
C214        C222   1.387       .  A
C215        C227   1.416       .  A
C215        C223   1.386       .  A
C216        C230   1.414       .  A
C216        C224   1.385       .  A
C217        C225   1.385       .  A
C217        C228   1.407       .  A
C218        C226   1.387       .  A
C218        C229   1.409       .  A
C219        C220   1.370   1_655  A
C219        H231   1.083       .  S
C220        H232   1.081       .  S
C221        C222   1.368   1_655  A
C221        H233   1.081       .  S
C222        H234   1.082       .  S
C223        C224   1.382       .  A
C223        H235   1.082       .  S
C224        H236   1.082       .  S
C225        C226   1.381       .  A
C225        H237   1.082       .  S
C226        H238   1.082       .  S
C227        C440   1.497       .  S
C228        C373   1.482       .  S
C229        C353   1.478       .  S
C230        C460   1.489       .  S
N241        C246   1.351       .  A
N241        C245   1.350       .  A
N241        H273   1.038       .  S
N242        C249   1.351       .  A
N242        C250   1.351       .  A
N243        C248   1.353       .  A
N243        C247   1.353       .  A
N243        H274   1.035       .  S
N244        C251   1.353       .  A
N244        C252   1.353       .  A
C245        C253   1.387       .  A
C245        C261   1.414       .  A
C246        C262   1.411       .  A
C246        C254   1.387       .  A
C247        C255   1.388       .  A
C247        C264   1.418       .  A
C248        C263   1.415       .  A
C248        C256   1.386       .  A
C249        C261   1.413       .  A
C249        C257   1.386       .  A
C250        C264   1.411       .  A
C250        C258   1.385       .  A
C251        C259   1.385       .  A
C251        C262   1.416       .  A
C252        C260   1.386       .  A
C252        C263   1.418       .  A
C253        C254   1.372       .  A
C253        H265   1.083       .  S
C254        H266   1.082       .  S
C255        C256   1.365       .  A
C255        H267   1.082       .  S
C256        H268   1.082       .  S
C257        C258   1.380       .  A
C257        H269   1.082       .  S
C258        H270   1.082       .  S
C259        C260   1.383       .  A
C259        H271   1.082       .  S
C260        H272   1.082       .  S
C261        C340   1.488       .  S
C262        C393   1.487       .  S
C263        C413   1.491       .  S
C264        C313   1.487       .  S
N275        C280   1.355       .  A
N275        C279   1.355       .  A
N275        H307   1.037       .  S
N276        C283   1.345       .  A
N276        C284   1.350       .  A
N277        C282   1.352       .  A
N277        C281   1.350       .  A
N277        H308   1.040       .  S
N278        C285   1.348       .  A
N278        C286   1.351       .  A
C279        C287   1.391       .  A
C279        C295   1.422       .  A
C280        C296   1.416       .  A
C280        C288   1.385       .  A
C281        C289   1.377       .  A
C281        C298   1.408       .  A
C282        C297   1.411       .  A
C282        C290   1.383       .  A
C283        C295   1.411       .  A
C283        C291   1.389       .  A
C284        C298   1.407       .  A
C284        C292   1.383       .  A
C285        C293   1.384       .  A
C285        C296   1.407       .  A
C286        C294   1.386       .  A
C286        C297   1.413       .  A
C287        C288   1.364       .  A
C287        H299   1.079       .  S
C288        H300   1.081       .  S
C289        C290   1.370       .  A
C289        H301   1.070       .  S
C290        H302   1.080       .  S
C291        C292   1.383       .  A
C291        H303   1.082       .  S
C292        H304   1.082       .  S
C293        C294   1.380       .  A
C293        H305   1.082       .  S
C294        H306   1.081       .  S
C295        C560   1.481       .  S
C296        C500   1.485       .  S
C297        C480   1.498       .  S
C298        C573   1.492       .  S
C309        C310   1.407       .  A
C309        C314   1.407       .  A
C309        F327   1.357       .  S
C310        C311   1.403       .  A
C310        C315   1.479       .  S
C311        C312   1.394       .  A
C311        F316   1.358       .  S
C312        C313   1.405       .  A
C312        F328   1.358       .  S
C313        C314   1.406       .  A
C314        F317   1.358       .  S
C315        C318   1.411       .  A
C315        C322   1.396       .  A
C318        C319   1.411       .  A
C318        F323   1.358       .  S
C319        C320   1.406       .  A
C319        F325   1.357       .  S
C320        C321   1.407       .  A
C321        C322   1.393       .  A
C321        F324   1.350       .  S
C322        F326   1.358       .  S
C329        C330   1.411       .  A
C329        C334   1.403       .  A
C329        F347   1.357       .  S
C330        C331   1.401       .  A
C330        C335   1.482       .  S
C331        C332   1.393       .  A
C331        F336   1.359       .  S
C332        C333   1.415       .  A
C332        F348   1.359       .  S
C333        C334   1.401       .  A
C334        F337   1.357       .  S
C335        C338   1.403       .  A
C335        C342   1.410       .  A
C338        C339   1.392       .  A
C338        F343   1.358       .  S
C339        C340   1.407       .  A
C339        F345   1.358       .  S
C340        C341   1.405       .  A
C341        C342   1.403       .  A
C341        F344   1.357       .  S
C342        F346   1.358       .  S
C349        C350   1.411       .  A
C349        C354   1.398       .  A
C349        F367   1.355       .  S
C350        C351   1.410       .  A
C350        C355   1.489       .  S
C351        C352   1.396       .  A
C351        F356   1.358       .  S
C352        C353   1.403       .  A
C352        F368   1.358       .  S
C353        C354   1.401       .  A
C354        F357   1.357       .  S
C355        C358   1.412       .  A
C355        C362   1.404       .  A
C358        C359   1.401       .  A
C358        F363   1.358       .  S
C359        C360   1.406       .  A
C359        F365   1.358       .  S
C360        C361   1.415       .  A
C361        C362   1.393       .  A
C361        F364   1.359       .  S
C362        F366   1.358       .  S
C369        C370   1.404       .  A
C369        C374   1.395       .  A
C369        F387   1.358       .  S
C370        C371   1.406       .  A
C370        C375   1.479       .  S
C371        C372   1.403       .  A
C371        F376   1.358       .  S
C372        C373   1.405       .  A
C372        F388   1.355       .  S
C373        C374   1.403       .  A
C374        F377   1.358       .  S
C375        C378   1.407       .  A
C375        C382   1.398       .  A
C378        C379   1.400       .  A
C378        F383   1.359       .  S
C379        C380   1.409       .  A
C379        F385   1.358       .  S
C380        C381   1.416       .  A
C381        C382   1.398       .  A
C381        F384   1.358       .  S
C382        F386   1.358       .  S
C389        C390   1.407       .  A
C389        C394   1.403       .  A
C389        F407   1.358       .  S
C390        C391   1.411       .  A
C390        C395   1.488       .  S
C391        C392   1.394       .  A
C391        F396   1.359       .  S
C392        C393   1.403       .  A
C392        F408   1.358       .  S
C393        C394   1.405       .  A
C394        F397   1.352       .  S
C395        C398   1.416       .  A
C395        C402   1.401       .  A
C398        C399   1.408       .  A
C398        F403   1.357       .  S
C399        C400   1.402       .  A
C399        F405   1.357       .  S
C400        C401   1.408       .  A
C401        C402   1.386       .  A
C401        F404   1.357       .  S
C402        F406   1.359       .  S
C409        C410   1.403       .  A
C409        C414   1.401       .  A
C409        F427   1.358       .  S
C410        C411   1.409       .  A
C410        C415   1.485       .  S
C411        C412   1.404       .  A
C411        F416   1.357       .  S
C412        C413   1.404       .  A
C412        F428   1.356       .  S
C413        C414   1.409       .  A
C414        F417   1.358       .  S
C415        C418   1.413       .  A
C415        C422   1.396       .  A
C418        C419   1.413       .  A
C418        F423   1.357       .  S
C419        C420   1.409       .  A
C419        F425   1.358       .  S
C420        C421   1.415       .  A
C421        C422   1.391       .  A
C421        F424   1.358       .  S
C422        F426   1.358       .  S
C429        C430   1.410       .  A
C429        C434   1.409       .  A
C429        F447   1.357       .  S
C430        C431   1.403       .  A
C430        C435   1.491       .  S
C431        C432   1.396       .  A
C431        F436   1.358       .  S
C432        C433   1.413       .  A
C432        F448   1.359       .  S
C433        C434   1.409       .  A
C434        F437   1.357       .  S
C435        C438   1.410       .  A
C435        C442   1.406       .  A
C438        C439   1.406       .  A
C438        F443   1.357       .  S
C439        C440   1.407       .  A
C439        F445   1.357       .  S
C440        C441   1.410       .  A
C441        C442   1.396       .  A
C441        F444   1.359       .  S
C442        F446   1.358       .  S
C449        C450   1.402       .  A
C449        C454   1.402       .  A
C449        F467   1.358       .  S
C450        C451   1.409       .  A
C450        C455   1.488       .  S
C451        C452   1.402       .  A
C451        F456   1.358       .  S
C452        C453   1.407       .  A
C452        F468   1.358       .  S
C453        C454   1.415       .  A
C454        F457   1.358       .  S
C455        C458   1.409       .  A
C455        C462   1.405       .  A
C458        C459   1.406       .  A
C458        F463   1.357       .  S
C459        C460   1.407       .  A
C459        F465   1.357       .  S
C460        C461   1.405       .  A
C461        C462   1.398       .  A
C461        F464   1.358       .  S
C462        F466   1.358       .  S
C469        C470   1.409       .  A
C469        C474   1.401       .  A
C469        F487   1.356       .  S
C470        C471   1.414       .  A
C470        C475   1.497       .  S
C471        C472   1.400       .  A
C471        F476   1.358       .  S
C472        C473   1.403       .  A
C472        F488   1.358       .  S
C473        C474   1.405       .  A
C474        F477   1.357       .  S
C475        C478   1.415       .  A
C475        C482   1.406       .  A
C478        C479   1.406       .  A
C478        F483   1.357       .  S
C479        C480   1.406       .  A
C479        F485   1.358       .  S
C480        C481   1.410       .  A
C481        C482   1.392       .  A
C481        F484   1.359       .  S
C482        F486   1.358       .  S
C489        C490   1.407       .  A
C489        C494   1.395       .  A
C489        F507   1.358       .  S
C490        C491   1.404       .  A
C490        C495   1.482       .  S
C491        C492   1.401       .  A
C491        F496   1.358       .  S
C492        C493   1.413       .  A
C492        F508   1.358       .  S
C493        C494   1.405       .  A
C494        F497   1.358       .  S
C495        C498   1.408       .  A
C495        C502   1.403       .  A
C498        C499   1.398       .  A
C498        F503   1.358       .  S
C499        C500   1.404       .  A
C499        F505   1.358       .  S
C500        C501   1.404       .  A
C501        C502   1.400       .  A
C501        F504   1.352       .  S
C502        F506   1.357       .  S
C509        C510   1.405       .  A
C509        C514   1.397       .  A
C509        F527   1.358       .  S
C510        C511   1.400       .  A
C510        C515   1.477       .  S
C511        C512   1.399       .  A
C511        F516   1.358       .  S
C512        C513   1.417       .  A
C512        F528   1.358       .  S
C513        C514   1.409       .  A
C514        F517   1.358       .  S
C515        C518   1.400       .  A
C515        C522   1.407       .  A
C518        C519   1.397       .  A
C518        F523   1.358       .  S
C519        C520   1.409       .  A
C519        F525   1.355       .  S
C520        C521   1.403       .  A
C521        C522   1.402       .  A
C521        F524   1.357       .  S
C522        F526   1.358       .  S
C529        C530   1.408       .  A
C529        C534   1.402       .  A
C529        F547   1.358       .  S
C530        C531   1.404       .  A
C530        C535   1.480       .  S
C531        C532   1.396       .  A
C531        F536   1.358       .  S
C532        C533   1.406       .  A
C532        F548   1.358       .  S
C533        C534   1.404       .  A
C534        F537   1.358       .  S
C535        C538   1.405       .  A
C535        C542   1.400       .  A
C538        C539   1.401       .  A
C538        F543   1.358       .  S
C539        C540   1.413       .  A
C539        F545   1.358       .  S
C540        C541   1.413       .  A
C541        C542   1.398       .  A
C541        F544   1.358       .  S
C542        F546   1.357       .  S
C549        C550   1.403       .  A
C549        C554   1.392       .  A
C549        F567   1.359       .  S
C550        C551   1.410       .  A
C550        C555   1.486       .  S
C551        C552   1.403       .  A
C551        F556   1.358       .  S
C552        C553   1.412       .  A
C552        F568   1.358       .  S
C553        C554   1.414       .  A
C554        F557   1.358       .  S
C555        C558   1.410       .  A
C555        C562   1.407       .  A
C558        C559   1.400       .  A
C558        F563   1.358       .  S
C559        C560   1.403       .  A
C559        F565   1.358       .  S
C560        C561   1.403       .  A
C561        C562   1.392       .  A
C561        F564   1.354   1_545  S
C562        F566   1.357       .  S
C569        C570   1.406       .  A
C569        C574   1.395       .  A
C569        F587   1.358       .  S
C570        C571   1.412       .  A
C570        C575   1.495       .  S
C571        C572   1.411       .  A
C571        F576   1.357       .  S
C572        C573   1.407       .  A
C572        F588   1.355       .  S
C573        C574   1.404       .  A
C574        F577   1.358       .  S
C575        C578   1.410       .  A
C575        C582   1.405       .  A
C578        C579   1.402       .  A
C578        F583   1.358       .  S
C579        C580   1.404       .  A
C579        F585   1.357       .  S
C580        C581   1.413       .  A
C581        C582   1.408       .  A
C581        F584   1.356       .  S
C582        F586   1.357       .  S
C589        C590   1.403       .  A
C589        C594   1.400       .  A
C589        F607   1.358       .  S
C590        C591   1.411       .  A
C590        C595   1.494       .  S
C591        C592   1.411       .  A
C591        F596   1.358       .  S
C592        C593   1.408       .  A
C592        F608   1.357       .  S
C593        C594   1.410       .  A
C594        F597   1.355       .  S
C595        C598   1.407       .  A
C595        C602   1.408       .  A
C598        C599   1.399       .  A
C598        F603   1.358       .  S
C599        C600   1.408       .  A
C599        F605   1.359       .  S
C600        C601   1.410       .  A
C601        C602   1.410       .  A
C601        F604   1.358       .  S
C602        F606   1.357       .  S
C609        C610   1.401       .  A
C609        C614   1.395       .  A
C609        F627   1.357       .  S
C610        C611   1.405       .  A
C610        C615   1.477       .  S
C611        C612   1.400       .  A
C611        F616   1.358       .  S
C612        C613   1.410       .  A
C612        F628   1.358       .  S
C613        C614   1.410       .  A
C614        F617   1.359       .  S
C615        C618   1.400       .  A
C615        C622   1.407       .  A
C618        C619   1.396       .  A
C618        F623   1.358       .  S
C619        C620   1.411       .  A
C619        F625   1.358       .  S
C620        C621   1.405       .  A
C621        C622   1.403       .  A
C621        F624   1.357       .  S
C622        F626   1.357       .  S
N629        C634   1.360       .  A
N629        C633   1.358       .  A
N629        H661   1.035       .  S
N630        C637   1.355       .  A
N630        C638   1.355       .  A
N631        C636   1.365       .  A
N631        C635   1.364       .  A
N631        H662   1.036       .  S
N632        C639   1.357       .  A
N632        C640   1.356       .  A
C633        C641   1.389       .  A
C633        C649   1.424       .  A
C634        C650   1.424       .  A
C634        C642   1.388       .  A
C635        C643   1.388       .  A
C635        C652   1.434       .  A
C636        C651   1.436       .  A
C636        C644   1.388       .  A
C637        C649   1.422       .  A
C637        C645   1.387       .  A
C638        C652   1.423       .  A
C638        C646   1.388       .  A
C639        C647   1.386       .  A
C639        C650   1.425       .  A
C640        C648   1.387       .  A
C640        C651   1.424       .  A
C641        C642   1.366       .  A
C641        H653   1.082       .  S
C642        H654   1.082       .  S
C643        C644   1.376       .  A
C643        H655   1.082       .  S
C644        H656   1.082       .  S
C645        C646   1.378       .  A
C645        H657   1.083       .  S
C646        H658   1.082       .  S
C647        C648   1.378       .  A
C647        H659   1.082       .  S
C648        H660   1.082       .  S
C649        C770   1.489       .  S
C650        C733   1.499       .  S
C651        C707   1.505       .  S
C652        C796   1.501       .  S
N663        C667   1.365       .  A
N663        H695   1.036       .  S
N664        C671   1.361       .  A
N664        C672   1.363   1_455  A
N665        C669   1.359       .  A
N665        H696   1.030   1_556  S
N666        C673   1.359   1_655  A
N666        C674   1.356       .  A
C667        C675   1.388       .  A
C667        C683   1.435       .  A
C668        C684   1.431       .  A
C668        C676   1.388       .  A
C669        C677   1.389       .  A
C669        C686   1.431       .  A
C670        C685   1.427       .  A
C670        C678   1.389       .  A
C671        C683   1.434   1_556  A
C671        C679   1.387       .  A
C672        C686   1.436       .  A
C672        C680   1.387       .  A
C673        C681   1.388       .  A
C673        C684   1.429   1_556  A
C674        C682   1.385       .  A
C674        C685   1.421       .  A
C675        H687   1.082       .  S
C676        H688   1.082       .  S
C677        H689   1.082       .  S
C678        H690   1.083       .  S
C679        C680   1.382   1_455  A
C679        H691   1.082       .  S
C680        H692   1.082       .  S
C681        C682   1.375   1_455  A
C681        H693   1.082       .  S
C682        H694   1.083       .  S
C683        C718   1.514   1_554  S
C684        C785   1.511   1_554  S
C685        C759   1.492       .  S
C686        C744   1.507       .  S
O697       Ni703   1.942       .  S
O697        C718   1.271       .  A
O698       Ni721   1.954       .  S
O698        C707   1.275       .  A
O699       Ni703   1.913       .  S
O699       Ni721   1.939       .  S
O699       Ni715   1.919   1_556  S
O699        H722   0.964       .  S
C700       C1241   1.485       .  S
C700        O717   1.280       .  A
C700        O709   1.275       .  A
O701       Ni720   1.921       .  S
O701        C707   1.266   1_554  A
O702       Ni720   1.906       .  S
O702        C704   1.271       .  A
Ni703       O706   1.921       .  S
Ni703       O708   1.907       .  S
C704       C1208   1.484       .  S
C704        O714   1.277       .  A
O705       Ni721   1.930       .  S
O705        C711   1.281       .  A
O706        C711   1.275       .  A
O708        C710   1.269       .  A
O709       Ni720   1.909       .  S
C710       C1228   1.479       .  S
C710        O716   1.270       .  A
C711       C1181   1.496       .  S
H712        O713   0.968       .  S
O713       Ni721   1.921       .  S
O713       Ni715   1.924   1_556  S
O713       Ni720   1.905   1_556  S
O714       Ni715   1.935       .  S
Ni715       O719   1.951       .  S
Ni715       O717   1.928       .  S
O716       Ni721   1.926       .  S
C718        O719   1.279   1_556  A
O723       Ni729   1.929       .  S
O723        C744   1.266   1_554  A
O724       Ni747   1.927   1_554  S
O724        C733   1.270   1_554  A
O725       Ni729   1.914   1_556  S
O725       Ni747   1.919       .  S
O725       Ni741   1.924       .  S
O725        H748   0.963       .  S
C726       C1168   1.486       .  S
C726        O743   1.284       .  A
C726        O735   1.276       .  A
O727       Ni746   1.942       .  S
O727        C733   1.269       .  A
O728       Ni746   1.905       .  S
O728        C730   1.270       .  A
Ni729       O732   1.926       .  S
Ni729       O734   1.897       .  S
C730       C1121   1.480       .  S
C730        O740   1.269       .  A
O731       Ni747   1.897   1_554  S
O731        C737   1.271       .  A
O732        C737   1.277       .  A
O734        C736   1.268       .  A
O735       Ni746   1.912       .  S
C736       C1141   1.480       .  S
C736        O742   1.273       .  A
C737       C1101   1.472       .  S
H738        O739   0.971       .  S
O739       Ni747   1.899       .  S
O739       Ni741   1.930       .  S
O739       Ni746   1.909       .  S
O740       Ni741   1.918       .  S
Ni741       O745   1.955       .  S
Ni741       O743   1.933       .  S
O742       Ni747   1.930   1_554  S
C744        O745   1.278       .  A
O749       Ni755   1.928       .  S
O749        C770   1.268       .  A
O750       Ni773   1.937       .  S
O750        C759   1.274       .  A
O751       Ni755   1.889       .  S
O751       Ni773   1.912       .  S
O751       Ni767   1.927   1_556  S
O751        H774   0.969       .  S
C752       C1048   1.481       .  S
C752        O769   1.282       .  A
C752        O761   1.278       .  A
O753       Ni772   1.919       .  S
O753        C759   1.267   1_554  A
O754       Ni772   1.906       .  S
O754        C756   1.267       .  A
Ni755       O758   1.934       .  S
Ni755       O760   1.887       .  S
C756       C1081   1.484       .  S
C756        O766   1.273       .  A
O757       Ni773   1.927       .  S
O757        C763   1.281       .  A
O758        C763   1.283       .  A
O760        C762   1.266       .  A
O761       Ni772   1.912       .  S
C762       C1028   1.484       .  S
C762        O768   1.279       .  A
C763       C1061   1.490       .  S
H764        O765   0.965   1_556  S
O765       Ni773   1.914   1_554  S
O765       Ni767   1.913       .  S
O765       Ni772   1.894       .  S
O766       Ni767   1.940       .  S
Ni767       O771   1.930       .  S
Ni767       O769   1.928       .  S
O768       Ni773   1.950       .  S
C770        O771   1.272   1_556  A
O775       Ni781   1.928       .  S
O775        C796   1.269   1_554  A
O776       Ni799   1.941       .  S
O776        C785   1.278   1_554  A
O777       Ni781   1.910       .  S
O777       Ni799   1.919       .  S
O777       Ni793   1.915   1_554  S
O777        H800   0.965   1_554  S
C778        C961   1.485       .  S
C778        O795   1.277       .  A
C778        O787   1.276       .  A
O779       Ni798   1.936       .  S
O779        C785   1.272       .  A
O780       Ni798   1.912       .  S
O780        C782   1.270       .  A
Ni781       O784   1.904       .  S
Ni781       O786   1.917       .  S
C782       C1008   1.492       .  S
C782        O792   1.269       .  A
O783       Ni799   1.939       .  S
O783        C789   1.284       .  A
O784        C789   1.275       .  A
O786        C788   1.273       .  A
O787       Ni798   1.926       .  S
C788        C948   1.482       .  S
C788        O794   1.272       .  A
C789        C988   1.478       .  S
H790        O791   0.978       .  S
O791       Ni799   1.919   1_556  S
O791       Ni793   1.926       .  S
O791       Ni798   1.913       .  S
O792       Ni793   1.925       .  S
Ni793       O797   1.929       .  S
Ni793       O795   1.923       .  S
O794       Ni799   1.919       .  S
C796        O797   1.269       .  A
N801        C806   1.351       .  A
N801        C805   1.350   1_655  A
N801        H833   1.041       .  S
N802        C809   1.346       .  A
N802        C810   1.346       .  A
N803        C808   1.353       .  A
N803        C807   1.354   1_655  A
N803        H834   1.042       .  S
N804        C811   1.348       .  A
N804        C812   1.347       .  A
C805        C813   1.387       .  A
C805        C821   1.410       .  A
C806        C822   1.410       .  A
C806        C814   1.387       .  A
C807        C815   1.386       .  A
C807        C824   1.414       .  A
C808        C823   1.415       .  A
C808        C816   1.388       .  A
C809        C821   1.406       .  A
C809        C817   1.386       .  A
C810        C824   1.406       .  A
C810        C818   1.386       .  A
C811        C819   1.386       .  A
C811        C822   1.411       .  A
C812        C820   1.387       .  A
C812        C823   1.411       .  A
C813        C814   1.372   1_455  A
C813        H825   1.082       .  S
C814        H826   1.082       .  S
C815        C816   1.372   1_455  A
C815        H827   1.083       .  S
C816        H828   1.083       .  S
C817        C818   1.383       .  A
C817        H829   1.082       .  S
C818        H830   1.082       .  S
C819        C820   1.386       .  A
C819        H831   1.082       .  S
C820        H832   1.082       .  S
C821       C1221   1.479       .  S
C822       C1161   1.485       .  S
C823       C1148   1.489       .  S
C824       C1248   1.487       .  S
N835        C840   1.355       .  A
N835        C839   1.352   1_455  A
N835        H867   1.038       .  S
N836        C843   1.353       .  A
N836        C844   1.353       .  A
N837        C842   1.351       .  A
N837        C841   1.353   1_455  A
N837        H868   1.036       .  S
N838        C845   1.350       .  A
N838        C846   1.348       .  A
C839        C847   1.386   1_655  A
C839        C855   1.415       .  A
C840        C856   1.418       .  A
C840        C848   1.388       .  A
C841        C849   1.387       .  A
C841        C858   1.414       .  A
C842        C857   1.413       .  A
C842        C850   1.386       .  A
C843        C855   1.418       .  A
C843        C851   1.386       .  A
C844        C858   1.416       .  A
C844        C852   1.385       .  A
C845        C853   1.385       .  A
C845        C856   1.411       .  A
C846        C854   1.386       .  A
C846        C857   1.411       .  A
C847        C848   1.369       .  A
C847        H859   1.082   1_455  S
C848        H860   1.079       .  S
C849        C850   1.366   1_655  A
C849        H861   1.079       .  S
C850        H862   1.081       .  S
C851        C852   1.384       .  A
C851        H863   1.082       .  S
C852        H864   1.082       .  S
C853        C854   1.382       .  A
C853        H865   1.082       .  S
C854        H866   1.082       .  S
C855       C1068   1.498       .  S
C856       C1001   1.489       .  S
C857        C981   1.481       .  S
C858       C1088   1.491       .  S
N869        C874   1.353       .  A
N869        C873   1.352       .  A
N869        H901   1.039       .  S
N870        C877   1.351       .  A
N870        C878   1.351       .  A
N871        C876   1.355       .  A
N871        C875   1.356       .  A
N871        H902   1.032       .  S
N872        C879   1.348       .  A
N872        C880   1.346       .  A
C873        C881   1.385       .  A
C873        C889   1.414       .  A
C874        C890   1.412       .  A
C874        C882   1.385       .  A
C875        C883   1.388       .  A
C875        C892   1.424       .  A
C876        C891   1.423       .  A
C876        C884   1.389       .  A
C877        C889   1.419       .  A
C877        C885   1.386       .  A
C878        C892   1.419       .  A
C878        C886   1.385       .  A
C879        C887   1.384       .  A
C879        C890   1.408       .  A
C880        C888   1.388       .  A
C880        C891   1.413       .  A
C881        C882   1.369       .  A
C881        H893   1.078       .  S
C882        H894   1.083       .  S
C883        C884   1.363       .  A
C883        H895   1.081       .  S
C884        H896   1.082       .  S
C885        C886   1.383       .  A
C885        H897   1.081       .  S
C886        H898   1.082       .  S
C887        C888   1.380       .  A
C887        H899   1.082       .  S
C888        H900   1.082       .  S
C889        C968   1.497       .  S
C890       C1021   1.487       .  S
C891       C1041   1.483       .  S
C892        C941   1.495       .  S
N903        C908   1.355       .  A
N903        C907   1.353       .  A
N903        H935   1.038       .  S
N904        C911   1.349       .  A
N904        C912   1.352       .  A
N905        C910   1.350       .  A
N905        C909   1.352       .  A
N905        H936   1.040       .  S
N906        C913   1.346       .  A
N906        C914   1.347       .  A
C907        C915   1.385       .  A
C907        C923   1.415       .  A
C908        C924   1.418       .  A
C908        C916   1.388       .  A
C909        C917   1.387       .  A
C909        C926   1.413       .  A
C910        C925   1.412       .  A
C910        C918   1.385       .  A
C911        C923   1.416       .  A
C911        C919   1.387       .  A
C912        C926   1.414       .  A
C912        C920   1.385       .  A
C913        C921   1.385       .  A
C913        C924   1.405       .  A
C914        C922   1.386       .  A
C914        C925   1.407       .  A
C915        C916   1.369       .  A
C915        H927   1.082       .  S
C916        H928   1.080       .  S
C917        C918   1.370       .  A
C917        H929   1.080       .  S
C918        H930   1.083       .  S
C919        C920   1.382       .  A
C919        H931   1.082       .  S
C920        H932   1.082       .  S
C921        C922   1.381       .  A
C921        H933   1.082       .  S
C922        H934   1.082       .  S
C923       C1188   1.489       .  S
C924       C1128   1.482       .  S
C925       C1108   1.485       .  S
C926       C1201   1.491       .  S
C937        C938   1.397       .  A
C937        C942   1.396       .  A
C937        F955   1.358       .  S
C938        C939   1.406       .  A
C938        C943   1.476       .  S
C939        C940   1.403       .  A
C939        F944   1.358       .  S
C940        C941   1.407       .  A
C940        F956   1.357       .  S
C941        C942   1.413       .  A
C942        F945   1.351   1_565  S
C943        C946   1.405       .  A
C943        C950   1.400       .  A
C946        C947   1.398       .  A
C946        F951   1.358       .  S
C947        C948   1.406       .  A
C947        F953   1.358       .  S
C948        C949   1.415       .  A
C949        C950   1.401       .  A
C949        F952   1.358       .  S
C950        F954   1.358       .  S
C957        C958   1.411       .  A
C957        C962   1.405       .  A
C957        F975   1.357       .  S
C958        C959   1.401       .  A
C958        C963   1.486       .  S
C959        C960   1.396       .  A
C959        F964   1.358       .  S
C960        C961   1.413       .  A
C960        F976   1.359       .  S
C961        C962   1.406       .  A
C962        F965   1.358       .  S
C963        C966   1.401       .  A
C963        C970   1.410       .  A
C966        C967   1.396       .  A
C966        F971   1.358       .  S
C967        C968   1.411       .  A
C967        F973   1.358       .  S
C968        C969   1.407       .  A
C969        C970   1.408       .  A
C969        F972   1.357       .  S
C970        F974   1.357       .  S
C977        C978   1.406       .  A
C977        C982   1.399       .  A
C977        F995   1.357       .  S
C978        C979   1.404       .  A
C978        C983   1.478       .  S
C979        C980   1.398       .  A
C979        F984   1.358       .  S
C980        C981   1.407       .  A
C980        F996   1.358       .  S
C981        C982   1.403       .  A
C982        F985   1.357       .  S
C983        C986   1.409       .  A
C983        C990   1.399       .  A
C986        C987   1.404       .  A
C986        F991   1.357       .  S
C987        C988   1.404       .  A
C987        F993   1.357       .  S
C988        C989   1.413       .  A
C989        C990   1.392       .  A
C989        F992   1.359       .  S
C990        F994   1.359       .  S
C997        C998   1.408       .  A
C997       C1002   1.397       .  A
C997       F1015   1.358       .  S
C998        C999   1.408       .  A
C998       C1003   1.489       .  S
C999       C1000   1.406       .  A
C999       F1004   1.358       .  S
C1000      C1001   1.406       .  A
C1000      F1016   1.354       .  S
C1001      C1002   1.402       .  A
C1002      F1005   1.357       .  S
C1003      C1006   1.408       .  A
C1003      C1010   1.403       .  A
C1006      C1007   1.397       .  A
C1006      F1011   1.358       .  S
C1007      C1008   1.409       .  A
C1007      F1013   1.358       .  S
C1008      C1009   1.417       .  A
C1009      C1010   1.403       .  A
C1009      F1012   1.359       .  S
C1010      F1014   1.357       .  S
C1017      C1018   1.406       .  A
C1017      C1022   1.409       .  A
C1017      F1035   1.357       .  S
C1018      C1019   1.404       .  A
C1018      C1023   1.480       .  S
C1019      C1020   1.390       .  A
C1019      F1024   1.359       .  S
C1020      C1021   1.405       .  A
C1020      F1036   1.359       .  S
C1021      C1022   1.407       .  A
C1022      F1025   1.357       .  S
C1023      C1026   1.411       .  A
C1023      C1030   1.396       .  A
C1026      C1027   1.412       .  A
C1026      F1031   1.356       .  S
C1027      C1028   1.406       .  A
C1027      F1033   1.357       .  S
C1028      C1029   1.414       .  A
C1029      C1030   1.387       .  A
C1029      F1032   1.357       .  S
C1030      F1034   1.359       .  S
C1037      C1038   1.405       .  A
C1037      C1042   1.398       .  A
C1037      F1055   1.357       .  S
C1038      C1039   1.404       .  A
C1038      C1043   1.477       .  S
C1039      C1040   1.394       .  A
C1039      F1044   1.359       .  S
C1040      C1041   1.408       .  A
C1040      F1056   1.358       .  S
C1041      C1042   1.404       .  A
C1042      F1045   1.357       .  S
C1043      C1046   1.408       .  A
C1043      C1050   1.397       .  A
C1046      C1047   1.404       .  A
C1046      F1051   1.358       .  S
C1047      C1048   1.410       .  A
C1047      F1053   1.358       .  S
C1048      C1049   1.411       .  A
C1049      C1050   1.389       .  A
C1049      F1052   1.358       .  S
C1050      F1054   1.356       .  S
C1057      C1058   1.410       .  A
C1057      C1062   1.406       .  A
C1057      F1075   1.357       .  S
C1058      C1059   1.408       .  A
C1058      C1063   1.497       .  S
C1059      C1060   1.399       .  A
C1059      F1064   1.359       .  S
C1060      C1061   1.412       .  A
C1060      F1076   1.359       .  S
C1061      C1062   1.408       .  A
C1062      F1065   1.357       .  S
C1063      C1066   1.413       .  A
C1063      C1070   1.406       .  A
C1066      C1067   1.408       .  A
C1066      F1071   1.356       .  S
C1067      C1068   1.406       .  A
C1067      F1073   1.357       .  S
C1068      C1069   1.410       .  A
C1069      C1070   1.395       .  A
C1069      F1072   1.359       .  S
C1070      F1074   1.358       .  S
C1077      C1078   1.404       .  A
C1077      C1082   1.404       .  A
C1077      F1095   1.358       .  S
C1078      C1079   1.407       .  A
C1078      C1083   1.486       .  S
C1079      C1080   1.402       .  A
C1079      F1084   1.358       .  S
C1080      C1081   1.406       .  A
C1080      F1096   1.358       .  S
C1081      C1082   1.411       .  A
C1082      F1085   1.357       .  S
C1083      C1086   1.404       .  A
C1083      C1090   1.406       .  A
C1086      C1087   1.405       .  A
C1086      F1091   1.356       .  S
C1087      C1088   1.405       .  A
C1087      F1093   1.355       .  S
C1088      C1089   1.407       .  A
C1089      C1090   1.401       .  A
C1089      F1092   1.358       .  S
C1090      F1094   1.358       .  S
C1097      C1098   1.410       .  A
C1097      C1102   1.401       .  A
C1097      F1115   1.358       .  S
C1098      C1099   1.402       .  A
C1098      C1103   1.479       .  S
C1099      C1100   1.387       .  A
C1099      F1104   1.358       .  S
C1100      C1101   1.409       .  A
C1100      F1116   1.358       .  S
C1101      C1102   1.406       .  A
C1102      F1105   1.358       .  S
C1103      C1106   1.409       .  A
C1103      C1110   1.405       .  A
C1106      C1107   1.401       .  A
C1106      F1111   1.358       .  S
C1107      C1108   1.405       .  A
C1107      F1113   1.357       .  S
C1108      C1109   1.408       .  A
C1109      C1110   1.389       .  A
C1109      F1112   1.359       .  S
C1110      F1114   1.359       .  S
C1117      C1118   1.407       .  A
C1117      C1122   1.395       .  A
C1117      F1135   1.358       .  S
C1118      C1119   1.401       .  A
C1118      C1123   1.479       .  S
C1119      C1120   1.400       .  A
C1119      F1124   1.358       .  S
C1120      C1121   1.416       .  A
C1120      F1136   1.358       .  S
C1121      C1122   1.405       .  A
C1122      F1125   1.358       .  S
C1123      C1126   1.406       .  A
C1123      C1130   1.405       .  A
C1126      C1127   1.394       .  A
C1126      F1131   1.358       .  S
C1127      C1128   1.402       .  A
C1127      F1133   1.358       .  S
C1128      C1129   1.407       .  A
C1129      C1130   1.404       .  A
C1129      F1132   1.357       .  S
C1130      F1134   1.358       .  S
C1137      C1138   1.403       .  A
C1137      C1142   1.393       .  A
C1137      F1155   1.358       .  S
C1138      C1139   1.402       .  A
C1138      C1143   1.475       .  S
C1139      C1140   1.403       .  A
C1139      F1144   1.357       .  S
C1140      C1141   1.411       .  A
C1140      F1156   1.357       .  S
C1141      C1142   1.408       .  A
C1142      F1145   1.359       .  S
C1143      C1146   1.398       .  A
C1143      C1150   1.408       .  A
C1146      C1147   1.393       .  A
C1146      F1151   1.358       .  S
C1147      C1148   1.408       .  A
C1147      F1153   1.354       .  S
C1148      C1149   1.405       .  A
C1149      C1150   1.404       .  A
C1149      F1152   1.357       .  S
C1150      F1154   1.358       .  S
C1157      C1158   1.407       .  A
C1157      C1162   1.403       .  A
C1157      F1175   1.357       .  S
C1158      C1159   1.401       .  A
C1158      C1163   1.479       .  S
C1159      C1160   1.398       .  A
C1159      F1164   1.358       .  S
C1160      C1161   1.407       .  A
C1160      F1176   1.356       .  S
C1161      C1162   1.404       .  A
C1162      F1165   1.357       .  S
C1163      C1166   1.407       .  A
C1163      C1170   1.398       .  A
C1166      C1167   1.404       .  A
C1166      F1171   1.357       .  S
C1167      C1168   1.409       .  A
C1167      F1173   1.358       .  S
C1168      C1169   1.415       .  A
C1169      C1170   1.396       .  A
C1169      F1172   1.359       .  S
C1170      F1174   1.357       .  S
C1177      C1178   1.401       .  A
C1177      C1182   1.393       .  A
C1177      F1195   1.359       .  S
C1178      C1179   1.411       .  A
C1178      C1183   1.490       .  S
C1179      C1180   1.406       .  A
C1179      F1184   1.357       .  S
C1180      C1181   1.409       .  A
C1180      F1196   1.357       .  S
C1181      C1182   1.418       .  A
C1182      F1185   1.358       .  S
C1183      C1186   1.407       .  A
C1183      C1190   1.411       .  A
C1186      C1187   1.400       .  A
C1186      F1191   1.358       .  S
C1187      C1188   1.408       .  A
C1187      F1193   1.358       .  S
C1188      C1189   1.400       .  A
C1189      C1190   1.400       .  A
C1189      F1192   1.354       .  S
C1190      F1194   1.357       .  S
C1197      C1198   1.408       .  A
C1197      C1202   1.400       .  A
C1197      F1215   1.358       .  S
C1198      C1199   1.404       .  A
C1198      C1203   1.486       .  S
C1199      C1200   1.402       .  A
C1199      F1204   1.358       .  S
C1200      C1201   1.404       .  A
C1200      F1216   1.347       .  S
C1201      C1202   1.403       .  A
C1202      F1205   1.358       .  S
C1203      C1206   1.406       .  A
C1203      C1210   1.405       .  A
C1206      C1207   1.398       .  A
C1206      F1211   1.358       .  S
C1207      C1208   1.407       .  A
C1207      F1213   1.358       .  S
C1208      C1209   1.411       .  A
C1209      C1210   1.405       .  A
C1209      F1212   1.357       .  S
C1210      F1214   1.358       .  S
C1217      C1218   1.402       .  A
C1217      C1222   1.393       .  A
C1217      F1235   1.357       .  S
C1218      C1219   1.411       .  A
C1218      C1223   1.481       .  S
C1219      C1220   1.402       .  A
C1219      F1224   1.358       .  S
C1220      C1221   1.402       .  A
C1220      F1236   1.357       .  S
C1221      C1222   1.403       .  A
C1222      F1225   1.357       .  S
C1223      C1226   1.408       .  A
C1223      C1230   1.402       .  A
C1226      C1227   1.397       .  A
C1226      F1231   1.358       .  S
C1227      C1228   1.404       .  A
C1227      F1233   1.358       .  S
C1228      C1229   1.414       .  A
C1229      C1230   1.398       .  A
C1229      F1232   1.358       .  S
C1230      F1234   1.358       .  S
C1237      C1238   1.404       .  A
C1237      C1242   1.397       .  A
C1237      F1255   1.358       .  S
C1238      C1239   1.406       .  A
C1238      C1243   1.483       .  S
C1239      C1240   1.400       .  A
C1239      F1244   1.358       .  S
C1240      C1241   1.410       .  A
C1240      F1256   1.357       .  S
C1241      C1242   1.412       .  A
C1242      F1245   1.358       .  S
C1243      C1246   1.404       .  A
C1243      C1250   1.410       .  A
C1246      C1247   1.394       .  A
C1246      F1251   1.358       .  S
C1247      C1248   1.405       .  A
C1247      F1253   1.355       .  S
C1248      C1249   1.405       .  A
C1249      C1250   1.403       .  A
C1249      F1252   1.357       .  S
C1250      F1254   1.358       .  S
