geometry optimzed in LAMMPS
_audit_creation_date              2020-11-30 
_audit_creation_method            'lammps2cif' 
_symmetry_space_group_name_H-M    'P1' 
_symmetry_Int_Tables_number       1 
_symmetry_cell_setting            triclinic 
loop_ 
_symmetry_equiv_pos_as_xyz 
  x,y,z 
_cell_length_a                    21.52853808 
_cell_length_b                    21.62502878586656 
_cell_length_c                    42.17148081751576 
_cell_angle_alpha                 88.15748659741212 
_cell_angle_beta                  88.69712469609095 
_cell_angle_gamma                 90.21160929099692 
loop_ 
_atom_site_label 
_atom_site_type_symbol 
_atom_site_fract_x 
_atom_site_fract_y 
_atom_site_fract_z 
_atom_site_charge 
C1          C  0.60854974  0.59434827  0.31337331    -0.02400
C2          C  0.92983045  0.10597028  0.31772066    -0.02400
C3          C  0.10408721  0.58600822  0.47502236    -0.02400
C4          C  0.45896967  0.43741114  0.22532337    -0.02400
C5          C  0.61522311  0.93531604  0.06558222    -0.02400
C6          C  0.93445297  0.43684793  0.06764758    -0.02400
C7          C  0.45132779  0.10753227  0.48119051    -0.02400
C8          C  0.08931009  0.94056113  0.23370492    -0.02400
O9          O  0.06014699  0.17003532  0.02079605    -0.80800
O10         O  0.09085853  0.89448624  0.49234379    -0.65500
O11         O  0.02010214  0.05667928  0.99897144    -1.12100
C12         C  0.00937027  0.99538128  0.10714650     1.06100
O13         O  0.00784480  0.86227425  0.01870749    -0.78700
O14         O  0.92519402  0.92220420  0.05407723    -0.66300
Ni15       Ni  0.06111771  0.12803385  0.48143195     1.34900
C16         C  0.89378273  0.96944402  0.04604601     0.84800
O17         O  0.05989150  0.98624174  0.44915612    -0.79300
O18         O  0.06056665  0.09054131  0.44097741    -0.89500
C19         C  0.05632191  0.85000590  0.50277931     0.84400
O20         O  0.14666092  0.10751968  0.48759437    -0.67700
O21         O  0.01339337  0.93997107  0.09793384    -0.87000
C22         C  0.17511544  0.05723217  0.49305227     0.85200
C23         C  0.05405554  0.03522152  0.43168798     1.06800
H24         H  0.08987313  0.97776342  0.04854154     0.38600
O25         O  0.04928014  0.97420187  0.03944278    -1.09700
O26         O  0.92091066  0.02156847  0.03943238    -0.66300
Ni27       Ni  0.00797740  0.05156623  0.04368448     1.26300
O28         O  0.14620755  0.00540074  0.49683516    -0.66600
O29         O  0.00137091  0.04309304  0.08903706    -0.78900
C30         C  0.00985516  0.17982346  0.03605610     0.84600
O31         O  0.97524195  0.13421925  0.04514306    -0.66000
Ni32       Ni  0.01105653  0.90260168  0.05800676     1.27400
Ni33       Ni  0.05863518  0.97795802  0.49446597     1.26100
H34         H  0.97986012  0.05488040  0.98932666     0.39100
O35         O  0.36695645  0.99633623  0.29128898    -0.80800
O36         O  0.62421380  0.08722145  0.29424102    -0.65500
O37         O  0.46678201  0.04662998  0.26232873    -1.12100
C38         C  0.54464844  0.84367017  0.27066856     1.06100
O39         O  0.65980672  0.03195326  0.25613859    -0.78700
O40         O  0.60700489  0.95020148  0.22061695    -0.66300
Ni41       Ni  0.39439633  0.07777491  0.28171902     1.34900
C42         C  0.55802081  0.95644918  0.20490359     0.84800
O43         O  0.52681522  0.15419765  0.27152087    -0.79300
O44         O  0.42190229  0.15832503  0.26984538    -0.89500
C45         C  0.67017057  0.06393467  0.27983860     0.84400
O46         O  0.41704340  0.08851104  0.32503205    -0.67700
O47         O  0.59837084  0.86870545  0.27032364    -0.87000
C48         C  0.46826923  0.08447811  0.33907644     0.85200
C49         C  0.47585816  0.18055795  0.26376856     1.06800
H50         H  0.55355601  0.96795738  0.30436480     0.38600
O51         O  0.55485212  0.98123066  0.28225479    -1.09700
O52         O  0.50498448  0.96285862  0.21875661    -0.66300
Ni53       Ni  0.47802397  0.95958707  0.26396099     1.26300
O54         O  0.51842009  0.07198877  0.32391740    -0.66600
O55         O  0.49347451  0.87246308  0.26695576    -0.78900
C56         C  0.35209146  0.96844316  0.26672905     0.84600
O57         O  0.39550589  0.94507840  0.24997537    -0.66000
Ni58       Ni  0.62848097  0.95063504  0.26369502     1.27400
Ni59       Ni  0.54341958  0.06883069  0.27900631     1.26100
H60         H  0.46658835  0.06045332  0.24031725     0.39100
O61         O  0.57682595  0.48603247  0.45706589    -0.80800
O62         O  0.41971897  0.48897076  0.07226491    -0.65500
O63         O  0.49654591  0.53949304  0.49411994    -1.12100
C64         C  0.67774016  0.53153343  0.05679132     1.06100
O65         O  0.46933607  0.57066317  0.08726813    -0.78700
O66         O  0.57288683  0.63544094  0.07142038    -0.66300
Ni67       Ni  0.48901156  0.49273976  0.45760209     1.34900
C68         C  0.57228137  0.66391933  0.04468583     0.84800
O69         O  0.37606100  0.51057071  0.01188890    -0.79300
O70         O  0.40046038  0.50107357  0.45959819    -0.89500
C71         C  0.43585868  0.52394995  0.09439579     0.84400
O72         O  0.48259271  0.40936671  0.47349148    -0.67700
O73         O  0.64098983  0.53062343  0.08105437    -0.87000
C74         C  0.46930650  0.38523268  0.50049325     0.85200
C75         C  0.36165361  0.50903024  0.98247391     1.06800
H76         H  0.55398668  0.46917144  0.05010091     0.38600
O77         O  0.53981353  0.51130569  0.04731077    -1.09700
O78         O  0.56732602  0.63418657  0.01910736    -0.66300
Ni79       Ni  0.57932289  0.54572493  0.01057739     1.26300
O80         O  0.46091969  0.41838775  0.02479344    -0.66600
O81         O  0.66011369  0.54656516  0.02881408    -0.78900
C82         C  0.60407033  0.53648800  0.44950418     0.84600
O83         O  0.61501375  0.57335940  0.47123470    -0.66000
Ni84       Ni  0.55504608  0.55175359  0.08516094     1.27400
Ni85       Ni  0.45615093  0.50918858  0.03133961     1.26100
H86         H  0.48137863  0.58065056  0.48926305     0.39100
O87         O  0.89719545  0.60486015  0.29384458    -0.80800
O88         O  0.17691565  0.52649164  0.27084102    -0.65500
O89         O  0.00915933  0.57787350  0.26527976    -1.12100
C90         C  0.97785771  0.35938917  0.27413524     1.06100
O91         O  0.15613771  0.46721868  0.23116353    -0.78700
O92         O  0.05023345  0.42062203  0.21146051    -0.66300
Ni93       Ni  0.98062525  0.63285110  0.29672612     1.34900
C94         C  0.00937764  0.45881906  0.20249674     0.84800
O95         O  0.12132451  0.63664255  0.26210038    -0.79300
O96         O  0.06109173  0.66989216  0.30065707    -0.89500
C97         C  0.19512902  0.49438764  0.24788729     0.84400
O98         O  0.99654664  0.57314666  0.33002787    -0.67700
O99         O  0.03553583  0.35424747  0.26697459    -0.87000
C100        C  0.05180071  0.55983013  0.33750713     0.85200
C101        C  0.09719233  0.68062886  0.27703110     1.06800
H102        H  0.06336579  0.45872714  0.29663993     0.38600
O103        O  0.06009870  0.47294824  0.27479611    -1.09700
O104        O  0.98127913  0.49385307  0.22173129    -0.66300
Ni105      Ni  0.97663587  0.49542271  0.26785617     1.26300
O106        O  0.09575143  0.55921386  0.31636478    -0.66600
O107        O  0.94729346  0.41022747  0.27202462    -0.78900
C108        C  0.86826238  0.56783127  0.27655148     0.84600
O109        O  0.89382998  0.52305271  0.26250357    -0.66000
Ni110      Ni  0.09563362  0.41130202  0.24949749     1.27400
Ni111      Ni  0.09347794  0.55381758  0.26966807     1.26100
H112        H  0.00331939  0.59673233  0.24447217     0.39100
C113        C  0.17936511  0.99938843  0.25975866    -0.05700
C114        C  0.16125532  0.95923897  0.23553019     0.00200
C115        C  0.21185744  0.92920524  0.21851929    -0.08400
C116        C  0.27216840  0.93307408  0.23060331    -0.05700
C117        C  0.28714320  0.97044837  0.25563575     0.00200
C118        C  0.24067424  0.00950240  0.26817747    -0.08300
C119        C  0.25370236  0.06351411  0.28956634     0.62100
H120        H  0.14597359  0.02088094  0.27482453     0.12800
H121        H  0.30898115  0.90515942  0.22074408     0.12800
C122        C  0.20675776  0.88826924  0.18961114     0.62300
F123        F  0.20142362  0.09911968  0.29512103    -0.22800
F124        F  0.29688277  0.10242905  0.27471876    -0.20200
F125        F  0.27462323  0.04268496  0.31874376    -0.19800
F126        F  0.26439310  0.87697322  0.17570297    -0.19900
F127        F  0.17297127  0.91592553  0.16597611    -0.20200
F128        F  0.18206728  0.83132185  0.19820289    -0.22900
C129        C  0.06754338  0.75774084  0.23696784    -0.05700
C130        C  0.10184238  0.74364500  0.26382486     0.00200
C131        C  0.13548340  0.78971629  0.27812113    -0.08400
C132        C  0.12773562  0.85061281  0.26719417    -0.05700
C133        C  0.09082294  0.86844488  0.24067888     0.00200
C134        C  0.06595734  0.81768566  0.22287132    -0.08300
C135        C  0.04343746  0.81786093  0.18861426     0.62100
H136        H  0.04328300  0.72002778  0.22612077     0.12800
H137        H  0.15062829  0.88556458  0.28040453     0.12800
C138        C  0.17825365  0.77454408  0.30525877     0.62300
F139        F  0.06978094  0.86324105  0.16926338    -0.22800
F140        F  0.97950501  0.82160491  0.18816325    -0.20200
F141        F  0.05983955  0.76309213  0.17442768    -0.19800
F142        F  0.22072071  0.73030977  0.29615387    -0.19900
F143        F  0.14346003  0.75165080  0.33076464    -0.20200
F144        F  0.21085238  0.82587401  0.31469904    -0.22900
C145        C  0.97945849  0.97120557  0.16181392    -0.05700
C146        C  0.01971148  0.00247295  0.14069909     0.00200
C147        C  0.07709171  0.02399483  0.15092272    -0.08400
C148        C  0.09670561  0.00421227  0.18094140    -0.05700
C149        C  0.06112235  0.96289863  0.20122584     0.00200
C150        C  0.99700971  0.95467524  0.19275151    -0.08300
C151        C  0.94386936  0.93732199  0.21561591     0.62100
H152        H  0.93387840  0.95922899  0.15343565     0.12800
H153        H  0.14117275  0.02109459  0.18815414     0.12800
C154        C  0.11801599  0.06605947  0.12966974     0.62300
F155        F  0.92688706  0.98953084  0.23137931    -0.22800
F156        F  0.95943210  0.89121001  0.23691504    -0.20200
F157        F  0.89208551  0.91674159  0.20006194    -0.19800
F158        F  0.08527503  0.11888331  0.12146918    -0.19900
F159        F  0.13543105  0.03612785  0.10238876    -0.20200
F160        F  0.17151243  0.08395858  0.14457868    -0.22900
C161        C  0.40579918  0.21787857  0.49640838    -0.05700
C162        C  0.45951230  0.18120903  0.48903774     0.00200
C163        C  0.51636047  0.21799426  0.48578353    -0.08400
C164        C  0.51723956  0.28158146  0.49356221    -0.05700
C165        C  0.46441885  0.31498909  0.50194445     0.00200
C166        C  0.40722196  0.28250354  0.50258446    -0.08300
C167        C  0.34699452  0.31748998  0.50749986     0.62100
H168        H  0.36046441  0.19724012  0.49583714     0.12800
H169        H  0.56083622  0.30702200  0.99040826     0.12800
C170        C  0.57862785  0.19735251  0.97180097     0.62300
F171        F  0.29540104  0.27905788  0.50751953    -0.22800
F172        F  0.34105524  0.36145723  0.48324801    -0.20200
F173        F  0.34760803  0.34649128  0.53624535    -0.19800
F174        F  0.58123591  0.13743175  0.46544485    -0.19900
F175        F  0.62535897  0.20968525  0.99271704    -0.20200
F176        F  0.59056366  0.23040229  0.94365436    -0.22900
C177        C  0.43844636  0.14584231  0.42337261    -0.05700
C178        C  0.47033759  0.10318071  0.44378450     0.00200
C179        C  0.51149975  0.06047709  0.42698577    -0.08400
C180        C  0.50624773  0.05547878  0.39349093    -0.05700
C181        C  0.46935174  0.09408433  0.37460482     0.00200
C182        C  0.43660108  0.14194500  0.38986674    -0.08300
C183        C  0.39871738  0.18897108  0.37102162     0.62100
H184        H  0.40920886  0.18003923  0.43425366     0.12800
H185        H  0.53299492  0.02054583  0.38137043     0.12800
C186        C  0.56404115  0.01850037  0.43930235     0.62300
F187        F  0.37756164  0.23649000  0.38962229    -0.22800
F188        F  0.34742989  0.16036879  0.35873618    -0.20200
F189        F  0.43480649  0.21506362  0.34648865    -0.19800
F190        F  0.54631425  0.95719560  0.43761017    -0.19900
F191        F  0.58445277  0.02813589  0.46922063    -0.20200
F192        F  0.61612528  0.02746096  0.41973232    -0.22900
C193        C  0.34276688  0.06945968  0.46093234    -0.05700
C194        C  0.37899674  0.08748478  0.48702869     0.00200
C195        C  0.34561116  0.08608165  0.01736072    -0.08400
C196        C  0.27979091  0.07478279  0.01861592    -0.05700
C197        C  0.24553814  0.06039077  0.49186296     0.00200
C198        C  0.27849992  0.05653443  0.46279877    -0.08300
C199        C  0.24465350  0.03951642  0.43327790     0.62100
H200        H  0.36444609  0.06294411  0.43820182     0.12800
H201        H  0.25394737  0.07640848  0.04088122     0.12800
C202        C  0.37698976  0.09267976  0.04929908     0.62300
F203        F  0.28349351  0.03743884  0.40669640    -0.22800
F204        F  0.19943859  0.08323824  0.42729525    -0.20200
F205        F  0.21746927  0.98182341  0.43819943    -0.19800
F206        F  0.41622144  0.14304827  0.04937239    -0.19900
F207        F  0.41010275  0.03979612  0.05661026    -0.20200
F208        F  0.33394281  0.10021432  0.07377264    -0.22900
C209        C  0.96974155  0.50006082  0.11586206    -0.05700
C210        C  0.95356598  0.44107969  0.10410138     0.00200
C211        C  0.95010108  0.39103145  0.12772025    -0.08400
C212        C  0.97562873  0.39926108  0.15761305    -0.05700
C213        C  0.99090617  0.45709795  0.16864507     0.00200
C214        C  0.98771260  0.50894318  0.14755634    -0.08300
C215        C  0.00613053  0.57272198  0.15804054     0.62100
H216        H  0.96768723  0.54012675  0.10004534     0.12800
H217        H  0.97927576  0.35998043  0.17393053     0.12800
C218        C  0.91042863  0.33292619  0.12576693     0.62300
F219        F  0.00604739  0.61607477  0.13315483    -0.22800
F220        F  0.06536460  0.57073696  0.17008518    -0.20200
F221        F  0.96486749  0.59200583  0.18124557    -0.19800
F222        F  0.94180789  0.28718727  0.11008108    -0.19900
F223        F  0.85548243  0.34716003  0.11162567    -0.20200
F224        F  0.89388579  0.30841378  0.15554921    -0.22900
C225        C  0.83056607  0.47505090  0.09096446    -0.05700
C226        C  0.86532758  0.45744096  0.06349991     0.00200
C227        C  0.83454866  0.46457295  0.03340774    -0.08400
C228        C  0.77500113  0.49115764  0.03293076    -0.05700
C229        C  0.74298645  0.51007469  0.06036483     0.00200
C230        C  0.77181191  0.50254137  0.09001182    -0.08300
C231        C  0.74211012  0.52407104  0.12096585     0.62100
H232        H  0.84871761  0.46764511  0.11424032     0.12800
H233        H  0.75228360  0.49550074  0.01028179     0.12800
C234        C  0.85779991  0.44374095  0.00080823     0.62300
F235        F  0.78319144  0.52237239  0.14577301    -0.22800
F236        F  0.69235099  0.48616380  0.12980505    -0.20200
F237        F  0.72237768  0.58464980  0.11717284    -0.19800
F238        F  0.81575146  0.40240683  0.98904387    -0.19900
F239        F  0.91522558  0.41601884  0.00070515    -0.20200
F240        F  0.86044032  0.49371042  0.47979160    -0.22900
C241        C  0.01066704  0.34912660  0.05906840    -0.05700
C242        C  0.94727032  0.36736836  0.05724637     0.00200
C243        C  0.90422887  0.31803742  0.04841697    -0.08400
C244        C  0.92918933  0.26020671  0.03980093    -0.05700
C245        C  0.99146630  0.24463222  0.04263231     0.00200
C246        C  0.03349159  0.29008622  0.05211948    -0.08300
C247        C  0.10232414  0.27619996  0.05605428     0.62100
H248        H  0.04350607  0.38014130  0.06835271     0.12800
H249        H  0.89823024  0.22404058  0.03219294     0.12800
C250        C  0.83267056  0.31247388  0.04990584     0.62300
F251        F  0.13336232  0.32343264  0.07054674    -0.22800
F252        F  0.13031994  0.26847462  0.02660888    -0.20200
F253        F  0.10950698  0.22296916  0.07465485    -0.19800
F254        F  0.81142623  0.30096446  0.01996508    -0.19900
F255        F  0.79918473  0.36046536  0.06159333    -0.20200
F256        F  0.81646749  0.26168937  0.06930029    -0.22900
C257        C  0.52694302  0.95844591  0.02401401    -0.05700
C258        C  0.57379874  0.98259195  0.04370043     0.00200
C259        C  0.57448017  0.04963165  0.04402622    -0.08400
C260        C  0.53287708  0.08528302  0.02509675    -0.05700
C261        C  0.49046968  0.06099946  0.00349641     0.00200
C262        C  0.48598708  0.99455792  0.50464390    -0.08300
C263        C  0.43697409  0.95737030  0.48736597     0.62100
H264        H  0.51946012  0.90953483  0.02421993     0.12800
H265        H  0.53458151  0.13450159  0.02779133     0.12800
C266        C  0.61614015  0.08998836  0.06356199     0.62300
F267        F  0.45246586  0.89542660  0.48553103    -0.22800
F268        F  0.42997407  0.97818506  0.45658706    -0.20200
F269        F  0.38069889  0.95998864  0.50360907    -0.19800
F270        F  0.65040711  0.12933606  0.04335100    -0.19900
F271        F  0.65708280  0.05822376  0.08194293    -0.20200
F272        F  0.57972041  0.12533703  0.08340563    -0.22900
C273        C  0.54918144  0.98209162  0.11308333    -0.05700
C274        C  0.60527251  0.95296379  0.10242844     0.00200
C275        C  0.64789905  0.94111233  0.12784397    -0.08400
C276        C  0.62319960  0.92785871  0.15837981    -0.05700
C277        C  0.56754456  0.95483052  0.16914107     0.00200
C278        C  0.53103640  0.98560257  0.14586472    -0.08300
C279        C  0.47313935  0.02086031  0.15523390     0.62100
H280        H  0.51764074  0.00073634  0.09581306     0.12800
H281        H  0.65439567  0.90747322  0.17560160     0.12800
C282        C  0.71580231  0.96274748  0.12977572     0.62300
F283        F  0.44618174  0.05000865  0.12930538    -0.22800
F284        F  0.48832313  0.06574126  0.17639803    -0.20200
F285        F  0.42980607  0.98063109  0.16924530    -0.19800
F286        F  0.73896195  0.99525836  0.10367063    -0.19900
F287        F  0.75374959  0.91287022  0.13628981    -0.20200
F288        F  0.72099919  0.00263373  0.15470245    -0.22900
C289        C  0.61800118  0.83749695  0.03066488    -0.05700
C290        C  0.59339333  0.86516952  0.05864126     0.00200
C291        C  0.54817843  0.82678649  0.07611935    -0.08400
C292        C  0.54470163  0.76255006  0.07046180    -0.05700
C293        C  0.57556971  0.73433283  0.04523456     0.00200
C294        C  0.61052856  0.77354513  0.02387418    -0.08300
C295        C  0.64300669  0.74750139  0.99505778     0.62100
H296        H  0.64574866  0.86629274  0.01435611     0.12800
H297        H  0.51582904  0.73300308  0.08596759     0.12800
C298        C  0.49820329  0.85027383  0.09856197     0.62300
F299        F  0.67766226  0.79208636  0.47838973    -0.22800
F300        F  0.59881826  0.72489011  0.47508329    -0.20200
F301        F  0.68219322  0.70011866  0.00445604    -0.19800
F302        F  0.47169296  0.90321459  0.08594751    -0.19900
F303        F  0.52271148  0.85931713  0.12789402    -0.20200
F304        F  0.44980662  0.80821949  0.10319088    -0.22900
C305        C  0.71335729  0.98586397  0.03552819    -0.05700
C306        C  0.68860956  0.93794918  0.05636325     0.00200
C307        C  0.73467514  0.89367598  0.06769506    -0.08400
C308        C  0.79892854  0.90625171  0.06200677    -0.05700
C309        C  0.82272008  0.96020544  0.04636462     0.00200
C310        C  0.77839322  0.99918974  0.03139873    -0.08300
C311        C  0.79927367  0.05421234  0.01057334     0.62100
H312        H  0.68164450  0.01519520  0.02285044     0.12800
H313        H  0.83207687  0.87288932  0.07088139     0.12800
C314        C  0.72166992  0.83066509  0.08467842     0.62300
F315        F  0.75016926  0.08175093  0.99495682    -0.22800
F316        F  0.84186290  0.03527744  0.98785167    -0.20200
F317        F  0.82629914  0.09819448  0.02901221    -0.19800
F318        F  0.71842718  0.78552535  0.06238825    -0.19900
F319        F  0.66858263  0.82908046  0.10340998    -0.20200
F320        F  0.76943115  0.81386385  0.10463838    -0.22900
C321        C  0.43297261  0.32580776  0.21852322    -0.05700
C322        C  0.47347312  0.36836116  0.23265829     0.00200
C323        C  0.51936143  0.34240588  0.25371902    -0.08400
C324        C  0.52778537  0.27886475  0.25481411    -0.05700
C325        C  0.47910448  0.24072004  0.24732051     0.00200
C326        C  0.43279550  0.26284711  0.22669405    -0.08300
C327        C  0.38343747  0.22136958  0.21315521     0.62100
H328        H  0.39846739  0.34277525  0.20224929     0.12800
H329        H  0.56569132  0.25950566  0.26840717     0.12800
C330        C  0.54520165  0.37220079  0.28247415     0.62300
F331        F  0.35696251  0.24852053  0.18654369    -0.22800
F332        F  0.33658802  0.21021597  0.23559815    -0.20200
F333        F  0.40930877  0.16591382  0.20426590    -0.19800
F334        F  0.55219279  0.33034930  0.30782711    -0.19900
F335        F  0.50439230  0.41495942  0.29345865    -0.20200
F336        F  0.60286401  0.39678840  0.27510038    -0.22900
C337        C  0.29633872  0.46580380  0.26747612    -0.05700
C338        C  0.26106193  0.48387848  0.24164606     0.00200
C339        C  0.28532614  0.47802511  0.21069987    -0.08400
C340        C  0.34544647  0.45549261  0.20706141    -0.05700
C341        C  0.38567984  0.44332879  0.23288573     0.00200
C342        C  0.35409140  0.43693711  0.26354390    -0.08300
C343        C  0.37004085  0.39562948  0.29217382     0.62100
H344        H  0.27459061  0.46649150  0.29095760     0.12800
H345        H  0.35995157  0.44593188  0.18316669     0.12800
C346        C  0.24885349  0.49629878  0.18132729     0.62300
F347        F  0.31685807  0.36579872  0.30400545    -0.22800
F348        F  0.39203675  0.43148114  0.31583691    -0.20200
F349        F  0.41055518  0.34899322  0.28589681    -0.19800
F350        F  0.22026917  0.55276185  0.18548594    -0.19900
F351        F  0.20449407  0.45178577  0.17581459    -0.20200
F352        F  0.28693529  0.50213163  0.15447436    -0.22900
C353        C  0.45590978  0.44031532  0.13262065    -0.05700
C354        C  0.43601548  0.50105497  0.12749999     0.00200
C355        C  0.43526146  0.54181576  0.15285760    -0.08400
C356        C  0.45514777  0.52015019  0.18246879    -0.05700
C357        C  0.47010808  0.45694058  0.18923240     0.00200
C358        C  0.47728770  0.41780759  0.16207074    -0.08300
C359        C  0.51004997  0.35534533  0.15891090     0.62100
H360        H  0.46001563  0.41104269  0.11223269     0.12800
H361        H  0.45055898  0.55195995  0.20166359     0.12800
C362        C  0.41001088  0.60741561  0.15073160     0.62300
F363        F  0.46709381  0.31116715  0.15073829    -0.22800
F364        F  0.54107699  0.33338946  0.18485606    -0.20200
F365        F  0.55430806  0.36068506  0.13459151    -0.19800
F366        F  0.38176891  0.62133988  0.12228150    -0.19900
F367        F  0.45794242  0.64900436  0.15471584    -0.20200
F368        F  0.36580738  0.61488248  0.17465011    -0.22900
C369        C  0.99743561  0.54119668  0.49716808    -0.05700
C370        C  0.06200640  0.55049380  0.00196840     0.00200
C371        C  0.08041555  0.53406879  0.03432626    -0.08400
C372        C  0.04147309  0.49304581  0.05296087    -0.05700
C373        C  0.97782742  0.48468649  0.04678350     0.00200
C374        C  0.95709099  0.52864564  0.02348269    -0.08300
C375        C  0.91773721  0.58397746  0.53273718     0.62100
H376        H  0.97634450  0.55789616  0.47557751     0.12800
H377        H  0.05949126  0.47330356  0.07462275     0.12800
C378        C  0.13446997  0.56159693  0.05217418     0.62300
F379        F  0.95539971  0.63565553  0.53396938    -0.22800
F380        F  0.88916087  0.57762653  0.06210716    -0.20200
F381        F  0.87280839  0.59567750  0.51048320    -0.19800
F382        F  0.19078259  0.53894461  0.04220102    -0.19900
F383        F  0.13018722  0.54776919  0.08448223    -0.20200
F384        F  0.13332842  0.62501419  0.04941271    -0.22900
C385        C  0.25091471  0.48257284  0.98925119    -0.05700
C386        C  0.29639501  0.52004645  0.47445854     0.00200
C387        C  0.27837964  0.56721408  0.45274924    -0.08400
C388        C  0.21521324  0.58316587  0.45201551    -0.05700
C389        C  0.16920143  0.55335017  0.47165925     0.00200
C390        C  0.18734110  0.49333763  0.98467804    -0.08300
C391        C  0.14758329  0.43587694  0.99234549     0.62100
H392        H  0.26528227  0.44251329  0.00333703     0.12800
H393        H  0.20293856  0.62174979  0.43731698     0.12800
C394        C  0.32554737  0.60303781  0.43188454     0.62300
F395        F  0.17290068  0.38647645  0.97648646    -0.22800
F396        F  0.08704934  0.43982808  0.98333783    -0.20200
F397        F  0.14890080  0.42152847  0.02449378    -0.19800
F398        F  0.35447591  0.56335323  0.41119055    -0.19900
F399        F  0.36962546  0.62991530  0.45049894    -0.20200
F400        F  0.29808521  0.64958678  0.41385183    -0.22900
C401        C  0.09420920  0.61473997  0.38150030    -0.05700
C402        C  0.06687568  0.56075480  0.37186357     0.00200
C403        C  0.04551303  0.51732989  0.39515928    -0.08400
C404        C  0.05472705  0.52915179  0.42771619    -0.05700
C405        C  0.08010999  0.58541501  0.43880614     0.00200
C406        C  0.09603823  0.63180861  0.41352563    -0.08300
C407        C  0.10831256  0.70178187  0.41687072     0.62100
H408        H  0.10926384  0.64654938  0.36253396     0.12800
H409        H  0.04042241  0.49378411  0.44458078     0.12800
C410        C  0.01570225  0.45753289  0.38520603     0.62300
F411        F  0.12182797  0.73222591  0.38833700    -0.22800
F412        F  0.15821278  0.71467051  0.43506238    -0.20200
F413        F  0.05555573  0.73012351  0.42798512    -0.19800
F414        F  0.05616352  0.42697409  0.36518009    -0.19900
F415        F  0.96152091  0.47037108  0.36932335    -0.20200
F416        F  0.00123174  0.41841055  0.41095120    -0.22900
C417        C  0.03931401  0.67988124  0.48483934    -0.05700
C418        C  0.10053875  0.65571738  0.48612394     0.00200
C419        C  0.14779780  0.69916805  0.99617647    -0.08400
C420        C  0.13150889  0.76257047  0.99906003    -0.05700
C421        C  0.07033697  0.78391997  0.49669469     0.00200
C422        C  0.02280982  0.74109496  0.49075904    -0.08300
C423        C  0.95488908  0.76034177  0.48761138     0.62100
H424        H  0.00329365  0.65164866  0.47595160     0.12800
H425        H  0.16708083  0.79609313  0.00438637     0.12800
C426        C  0.21600894  0.68692201  0.00303391     0.62300
F427        F  0.91848223  0.71418697  0.47548996    -0.22800
F428        F  0.95069476  0.81166029  0.46731818    -0.20200
F429        F  0.92993314  0.77384288  0.51708780    -0.19800
F430        F  0.25267631  0.70789463  0.97755682    -0.19900
F431        F  0.22953791  0.62647862  0.00987360    -0.20200
F432        F  0.23299117  0.71892765  0.02945520    -0.22900
C433        C  0.97340913  0.00239817  0.30050375    -0.05700
C434        C  0.97308544  0.06742339  0.29360661     0.00200
C435        C  0.01847529  0.08819587  0.26998020    -0.08400
C436        C  0.04743290  0.04337518  0.25143373    -0.05700
C437        C  0.04881783  0.97859821  0.25868481     0.00200
C438        C  0.01252030  0.95854829  0.28639153    -0.08300
C439        C  0.01471942  0.89582443  0.30472156     0.62100
H440        H  0.94150301  0.98612385  0.31880348     0.12800
H441        H  0.07567755  0.06038817  0.23163834     0.12800
C442        C  0.04294809  0.15398285  0.26267828     0.62300
F443        F  0.97043084  0.89062446  0.32906352    -0.22800
F444        F  0.07108706  0.89007980  0.31936794    -0.20200
F445        F  0.00363010  0.84635187  0.28592286    -0.19800
F446        F  0.04862779  0.18821069  0.28929034    -0.19900
F447        F  0.00603989  0.18327495  0.24057377    -0.20200
F448        F  0.10259261  0.15330187  0.24952954    -0.22900
C449        C  0.91115032  0.19921812  0.28242751    -0.05700
C450        C  0.93565091  0.17820535  0.31193897     0.00200
C451        C  0.95990519  0.22600310  0.33226101    -0.08400
C452        C  0.96750922  0.28622312  0.31875012    -0.05700
C453        C  0.94851495  0.30319826  0.28838515     0.00200
C454        C  0.91658512  0.26039768  0.27057179    -0.08300
C455        C  0.89300099  0.27800270  0.23798995     0.62100
H456        H  0.89111402  0.16562327  0.26713554     0.12800
H457        H  0.99270954  0.32089032  0.33144783     0.12800
C458        C  0.98710197  0.22106931  0.36583230     0.62300
F459        F  0.86242987  0.22941600  0.22435371    -0.22800
F460        F  0.94248938  0.29540301  0.21831492    -0.20200
F461        F  0.85208051  0.32684765  0.24030465    -0.19800
F462        F  0.97572294  0.27521042  0.38170976    -0.19900
F463        F  0.05087191  0.21439657  0.36324029    -0.20200
F464        F  0.96300842  0.17529844  0.38585779    -0.22900
C465        C  0.84260489  0.04590046  0.29022346    -0.05700
C466        C  0.85836370  0.09120619  0.31235986     0.00200
C467        C  0.80679829  0.12803437  0.32364235    -0.08400
C468        C  0.74734072  0.11924957  0.31114146    -0.05700
C469        C  0.73421293  0.07108721  0.29102945     0.00200
C470        C  0.78227264  0.03021979  0.28264251    -0.08300
C471        C  0.77179334  0.96877958  0.26656609     0.62100
H472        H  0.87660611  0.02120287  0.27747124     0.12800
H473        H  0.70995050  0.15012932  0.31768711     0.12800
C474        C  0.81014350  0.17946407  0.34727311     0.62300
F475        F  0.82427088  0.93184800  0.26696066    -0.22800
F476        F  0.75616377  0.97882066  0.23520220    -0.20200
F477        F  0.72546565  0.93557847  0.28275388    -0.19800
F478        F  0.81503179  0.23618532  0.33133414    -0.19900
F479        F  0.85866078  0.17187118  0.36729265    -0.20200
F480        F  0.75690183  0.17963373  0.36636480    -0.22900
C481        C  0.02116273  0.08840898  0.35173075    -0.05700
C482        C  0.95540523  0.08195969  0.35034497     0.00200
C483        C  0.92587739  0.04199868  0.37478101    -0.08400
C484        C  0.96259394  0.02194334  0.40047670    -0.05700
C485        C  0.02694080  0.03028413  0.40049684     0.00200
C486        C  0.05664525  0.05721623  0.37395088    -0.08300
C487        C  0.12486762  0.04918192  0.36688995     0.62100
H488        H  0.04647502  0.11363326  0.33305699     0.12800
H489        H  0.94103598  0.00107819  0.42171136     0.12800
C490        C  0.85897328  0.01698067  0.37569276     0.62300
F491        F  0.13242741  0.02649723  0.33678207    -0.22800
F492        F  0.15071247  0.00671462  0.38773532    -0.20200
F493        F  0.15521521  0.10545277  0.36818520    -0.19800
F494        F  0.84609265  0.98556904  0.34872036    -0.19900
F495        F  0.81671527  0.06352764  0.37999978    -0.20200
F496        F  0.84862808  0.97472742  0.40068135    -0.22900
C497        C  0.59569679  0.52690748  0.26406568    -0.05700
C498        C  0.56641062  0.55505510  0.29049443     0.00200
C499        C  0.49960730  0.55801315  0.28895144    -0.08400
C500        C  0.46877309  0.52513507  0.26547761    -0.05700
C501        C  0.49890632  0.48497213  0.24432135     0.00200
C502        C  0.56465467  0.49434024  0.24067778    -0.08300
C503        C  0.60455786  0.47245301  0.21263651     0.62100
H504        H  0.64417500  0.53394590  0.25968413     0.12800
H505        H  0.41966246  0.53262826  0.26353663     0.12800
C506        C  0.45721675  0.59968922  0.30827803     0.62300
F507        F  0.58696271  0.50156908  0.18468168    -0.22800
F508        F  0.60016137  0.40972536  0.21031456    -0.20200
F509        F  0.66722417  0.48526148  0.21565949    -0.19800
F510        F  0.44770124  0.65432391  0.29122702    -0.19900
F511        F  0.48011999  0.61274048  0.33728874    -0.20200
F512        F  0.39990716  0.57166859  0.31417075    -0.22900
C513        C  0.53821529  0.76509191  0.31176946    -0.05700
C514        C  0.54360791  0.77834301  0.27946419     0.00200
C515        C  0.56784496  0.73485300  0.25899005    -0.08400
C516        C  0.58800476  0.67858086  0.27200694    -0.05700
C517        C  0.58704108  0.66347675  0.30534341     0.00200
C518        C  0.56339233  0.71135873  0.32609856    -0.08300
C519        C  0.56936638  0.71530987  0.36226336     0.62100
H520        H  0.52030180  0.80213707  0.32599156     0.12800
H521        H  0.60797144  0.64630154  0.25571652     0.12800
C522        C  0.57364866  0.74912456  0.22352118     0.62300
F523        F  0.54060852  0.76698545  0.37439741    -0.22800
F524        F  0.63115435  0.72141262  0.36958196    -0.20200
F525        F  0.54193189  0.66601371  0.37856082    -0.19800
F526        F  0.61759048  0.79510950  0.21761203    -0.19900
F527        F  0.51701611  0.76916012  0.21229799    -0.20200
F528        F  0.59130532  0.69773081  0.20683696    -0.22900
C529        C  0.71461730  0.63795566  0.29251008    -0.05700
C530        C  0.68033757  0.58566251  0.30441343     0.00200
C531        C  0.71450094  0.52754299  0.30571452    -0.08400
C532        C  0.76758209  0.52241632  0.28623327    -0.05700
C533        C  0.80084637  0.57457815  0.27625441     0.00200
C534        C  0.77331347  0.63328520  0.27811393    -0.08300
C535        C  0.80444226  0.69236074  0.26535210     0.62100
H536        H  0.69702203  0.68427541  0.29482057     0.12800
H537        H  0.79072110  0.47794507  0.28494561     0.12800
C538        C  0.70879524  0.47172561  0.32903530     0.62300
F539        F  0.76287704  0.72613018  0.24725711    -0.22800
F540        F  0.85593795  0.68086019  0.24624178    -0.20200
F541        F  0.82230125  0.72743474  0.29046356    -0.19800
F542        F  0.67326525  0.47989569  0.35571141    -0.22300
F543        F  0.76710285  0.45715157  0.34041130    -0.20200
F544        F  0.68773484  0.42089160  0.31350056    -0.22900
C545        C  0.65207564  0.60223178  0.36859927    -0.05700
C546        C  0.60475848  0.57725434  0.34949158     0.00200
C547        C  0.56228097  0.53485770  0.36539722    -0.08400
C548        C  0.55713991  0.53540650  0.39814460    -0.05700
C549        C  0.60548271  0.55699617  0.41620770     0.00200
C550        C  0.65466366  0.59050502  0.40145352    -0.08300
C551        C  0.70896439  0.61384901  0.42004564     0.62100
H552        H  0.68819734  0.63087201  0.35756899     0.12800
H553        H  0.51931116  0.50946881  0.40956734     0.12800
C554        C  0.53763509  0.47610271  0.35201959     0.62300
F555        F  0.75485730  0.64022721  0.40040173    -0.22800
F556        F  0.73515079  0.56541286  0.43723268    -0.20200
F557        F  0.68839984  0.65821786  0.44056506    -0.19800
F558        F  0.53749125  0.42731109  0.37425636    -0.19900
F559        F  0.57567666  0.45807280  0.32778759    -0.20200
F560        F  0.47760352  0.48460946  0.34269871    -0.22900
C561        C  0.60836415  0.59454998  0.81330118    -0.02400
C562        C  0.92991278  0.10603238  0.81770259    -0.02400
C563        C  0.10413305  0.58611712  0.97508533    -0.02400
C564        C  0.45864889  0.43737289  0.72541934    -0.02400
C565        C  0.61515125  0.93566509  0.56564708    -0.02400
C566        C  0.93448788  0.43668251  0.56771899    -0.02400
C567        C  0.45148892  0.10712269  0.98102498    -0.02400
C568        C  0.08946313  0.94071072  0.73369083    -0.02400
O569        O  0.06023778  0.16980927  0.52087757    -0.80800
O570        O  0.09098244  0.89462754  0.99236448    -0.65500
O571        O  0.02001629  0.05655061  0.49901918    -1.12100
C572        C  0.00928713  0.99516818  0.60714699     1.06100
O573        O  0.00769849  0.86211905  0.51866649    -0.78700
O574        O  0.92505717  0.92208180  0.55401952    -0.66300
Ni575      Ni  0.06128019  0.12812697  0.98137939     1.34900
C576        C  0.89370601  0.96940658  0.54606728     0.84800
O577        O  0.05994884  0.98626300  0.94914405    -0.79300
O578        O  0.06099338  0.09054326  0.94092450    -0.89500
C579        C  0.05646510  0.85015666  0.00281876     0.84400
O580        O  0.14679957  0.10766208  0.98769076    -0.67700
O581        O  0.01317333  0.93974963  0.59792610    -0.87000
C582        C  0.17523799  0.05733319  0.99306365     0.85200
C583        C  0.05432122  0.03522919  0.93164744     1.06800
H584        H  0.08976960  0.97749329  0.54855499     0.38600
O585        O  0.04917402  0.97399990  0.53945237    -1.09700
O586        O  0.92088101  0.02152397  0.53951392    -0.66300
Ni587      Ni  0.00796961  0.05140891  0.54372558     1.26300
O588        O  0.14630783  0.00550288  0.99677220    -0.66600
O589        O  0.00140664  0.04291164  0.58905489    -0.78900
C590        C  0.00997295  0.17965575  0.53614342     0.84600
O591        O  0.97532096  0.13408259  0.54522529    -0.66000
Ni592      Ni  0.01088071  0.90240771  0.55798324     1.27400
Ni593      Ni  0.05872788  0.97807817  0.99445309     1.26100
H594        H  0.97975448  0.05474868  0.48939534     0.39100
O595        O  0.36707105  0.99629329  0.79128493    -0.80800
O596        O  0.62423019  0.08715733  0.79416604    -0.65500
O597        O  0.46682691  0.04653234  0.76222864    -1.12100
C598        C  0.54451930  0.84367074  0.77065010     1.06100
O599        O  0.65994649  0.03180644  0.75612196    -0.78700
O600        O  0.60699412  0.95019807  0.72060374    -0.66300
Ni601      Ni  0.39443080  0.07769065  0.78158489     1.34900
C602        C  0.55798611  0.95637129  0.70490735     0.84800
O603        O  0.52679544  0.15408885  0.77143837    -0.79300
O604        O  0.42187852  0.15817999  0.76960953    -0.89500
C605        C  0.67023080  0.06383838  0.77981472     0.84400
O606        O  0.41712099  0.08862668  0.82486145    -0.67700
O607        O  0.59827799  0.86863341  0.77026536    -0.87000
C608        C  0.46831497  0.08440398  0.83891667     0.85200
C609        C  0.47585666  0.18045002  0.76364848     1.06800
H610        H  0.55360312  0.96792527  0.80430554     0.38600
O611        O  0.55488660  0.98116509  0.78219081    -1.09700
O612        O  0.50494217  0.96265891  0.71875671    -0.66300
Ni613      Ni  0.47801733  0.95952588  0.76394083     1.26300
O614        O  0.51844115  0.07180198  0.82378174    -0.66600
O615        O  0.49337172  0.87247886  0.76698219    -0.78900
C616        C  0.35213849  0.96835439  0.76675765     0.84600
O617        O  0.39551040  0.94498322  0.74998639    -0.66000
Ni618      Ni  0.62850389  0.95052034  0.76366272     1.27400
Ni619      Ni  0.54345640  0.06873699  0.77890215     1.26100
H620        H  0.46664700  0.06030069  0.74020977     0.39100
O621        O  0.57702769  0.48622508  0.95687371    -0.80800
O622        O  0.41949297  0.48849040  0.57224934    -0.65500
O623        O  0.49663464  0.53926970  0.99397124    -1.12100
C624        C  0.67763090  0.53164384  0.55698257     1.06100
O625        O  0.46870697  0.57015702  0.58765906    -0.78700
O626        O  0.57187721  0.63563358  0.57164094    -0.66300
Ni627      Ni  0.48914324  0.49247890  0.95749072     1.34900
C628        C  0.57195877  0.66407371  0.54487610     0.84800
O629        O  0.37596793  0.51057527  0.51194296    -0.79300
O630        O  0.40047307  0.50042463  0.95957102    -0.89500
C631        C  0.43538116  0.52317274  0.59452168     0.84400
O632        O  0.48332166  0.40912514  0.97345395    -0.67700
O633        O  0.64087281  0.53116151  0.58125678    -0.87000
C634        C  0.46976172  0.38497452  0.00041952     0.85200
C635        C  0.36161886  0.50937569  0.48251244     1.06800
H636        H  0.55376795  0.46930584  0.55031028     0.38600
O637        O  0.53960286  0.51143697  0.54749280    -1.09700
O638        O  0.56764878  0.63428755  0.51926624    -0.66300
Ni639      Ni  0.57923282  0.54572709  0.51073754     1.26300
O640        O  0.46093265  0.41859681  0.52489296    -0.66600
O641        O  0.65999890  0.54628184  0.52896210    -0.78900
C642        C  0.60413789  0.53679239  0.94936928     0.84600
O643        O  0.61501234  0.57359750  0.97112612    -0.66000
Ni644      Ni  0.55466688  0.55180847  0.58539642     1.27400
Ni645      Ni  0.45600067  0.50926111  0.53144638     1.26100
H646        H  0.48140405  0.58038835  0.98907781     0.39100
O647        O  0.89686548  0.60473921  0.79405851    -0.80800
O648        O  0.17678586  0.52679486  0.77079921    -0.65500
O649        O  0.00890679  0.57812851  0.76543841    -1.12100
C650        C  0.97785236  0.35957139  0.77424738     1.06100
O651        O  0.15560250  0.46774454  0.73111956    -0.78700
O652        O  0.04979734  0.42066730  0.71160543    -0.66300
Ni653      Ni  0.98028733  0.63287927  0.79696307     1.34900
C654        C  0.00914936  0.45904319  0.70259121     0.84800
O655        O  0.12101755  0.63698262  0.76230818    -0.79300
O656        O  0.06070388  0.67010979  0.80089177    -0.89500
C657        C  0.19481585  0.49461448  0.74782439     0.84400
O658        O  0.99641380  0.57302454  0.83017798    -0.67700
O659        O  0.03558328  0.35450526  0.76718681    -0.87000
C660        C  0.05171717  0.55979394  0.83761463     0.85200
C661        C  0.09685419  0.68090785  0.77728118     1.06800
H662        H  0.06315818  0.45898529  0.79670881     0.38600
O663        O  0.05990770  0.47322833  0.77486783    -1.09700
O664        O  0.98125199  0.49429604  0.72178504    -0.66300
Ni665      Ni  0.97645648  0.49564292  0.76791071     1.26300
O666        O  0.09563648  0.55935973  0.81645260    -0.66600
O667        O  0.94719877  0.41035876  0.77199568    -0.78900
C668        C  0.86803139  0.56794529  0.77658631     0.84600
O669        O  0.89366763  0.52325636  0.76249673    -0.66000
Ni670      Ni  0.09544914  0.41163109  0.74957162     1.27400
Ni671      Ni  0.09326567  0.55411779  0.76976411     1.26100
H672        H  0.00302064  0.59708853  0.74465676     0.39100
C673        C  0.17949483  0.99968084  0.75966656    -0.05700
C674        C  0.16138352  0.95943084  0.73548356     0.00200
C675        C  0.21196845  0.92928687  0.71851686    -0.08400
C676        C  0.27223119  0.93304686  0.73064814    -0.05700
C677        C  0.28720810  0.97044507  0.75566614     0.00200
C678        C  0.24079400  0.00962889  0.76815904    -0.08300
C679        C  0.25387317  0.06356981  0.78958985     0.62100
H680        H  0.14609179  0.02137161  0.77464264     0.12800
H681        H  0.30900104  0.90501249  0.72083820     0.12800
C682        C  0.20689408  0.88830037  0.68962734     0.62300
F683        F  0.20163812  0.09920842  0.79518557    -0.22800
F684        F  0.29706499  0.10249949  0.77476564    -0.20200
F685        F  0.27479054  0.04263469  0.81875055    -0.19800
F686        F  0.26454693  0.87699711  0.67573608    -0.19900
F687        F  0.17313036  0.91591181  0.66597102    -0.20200
F688        F  0.18220070  0.83136235  0.69824468    -0.22900
C689        C  0.06718363  0.75801200  0.73723633    -0.05700
C690        C  0.10150789  0.74392877  0.76408506     0.00200
C691        C  0.13554956  0.78991606  0.77822231    -0.08400
C692        C  0.12800030  0.85080069  0.76721884    -0.05700
C693        C  0.09101403  0.86861718  0.74072494     0.00200
C694        C  0.06597726  0.81784003  0.72300394    -0.08300
C695        C  0.04368248  0.81779702  0.68871464     0.62100
H696        H  0.04274214  0.72034266  0.72644888     0.12800
H697        H  0.15108190  0.88573783  0.78035822     0.12800
C698        C  0.17859389  0.77467760  0.80523442     0.62300
F699        F  0.06998949  0.86315351  0.66933658    -0.22800
F700        F  0.97974444  0.82135926  0.68816743    -0.20200
F701        F  0.06034192  0.76298472  0.67464362    -0.19800
F702        F  0.22070600  0.73017633  0.79605369    -0.19900
F703        F  0.14402713  0.75209565  0.83088947    -0.20200
F704        F  0.21160377  0.82590424  0.81447486    -0.22900
C705        C  0.97951604  0.97104353  0.66182431    -0.05700
C706        C  0.01972739  0.00226838  0.64067977     0.00200
C707        C  0.07713046  0.02383015  0.65085023    -0.08400
C708        C  0.09678323  0.00416836  0.68087798    -0.05700
C709        C  0.06123917  0.96290003  0.70120603     0.00200
C710        C  0.99712856  0.95455576  0.69275233    -0.08300
C711        C  0.94401533  0.93710737  0.71561668     0.62100
H712        H  0.93391812  0.95905313  0.65347331     0.12800
H713        H  0.14124016  0.02112034  0.68806655     0.12800
C714        C  0.11801216  0.06584632  0.62954161     0.62300
F715        F  0.92676619  0.98934513  0.73128565    -0.22800
F716        F  0.95970743  0.89119756  0.73699704    -0.20200
F717        F  0.89236978  0.91618343  0.70006571    -0.19800
F718        F  0.08535411  0.11878744  0.62145619    -0.19900
F719        F  0.13512023  0.03596879  0.60219687    -0.20200
F720        F  0.17169813  0.08353572  0.64434398    -0.22900
C721        C  0.40613038  0.21758718  0.99623254    -0.05700
C722        C  0.45977150  0.18081630  0.98886041     0.00200
C723        C  0.51664367  0.21752421  0.98553271    -0.08400
C724        C  0.51762391  0.28117522  0.99326170    -0.05700
C725        C  0.46488435  0.31465851  0.00179467     0.00200
C726        C  0.40765105  0.28222020  0.00241532    -0.08300
C727        C  0.34745861  0.31730560  0.00724846     0.62100
H728        H  0.36076599  0.19701551  0.99565157     0.12800
H729        H  0.56044904  0.30747544  0.49082229     0.12800
C730        C  0.57852535  0.19805855  0.47218604     0.62300
F731        F  0.29580890  0.27896131  0.00719539    -0.22800
F732        F  0.34170630  0.36128693  0.98298547    -0.20200
F733        F  0.34797372  0.34630403  0.03599433    -0.19800
F734        F  0.58140418  0.13645152  0.96560957    -0.19900
F735        F  0.62483344  0.20956337  0.49346667    -0.20200
F736        F  0.59114424  0.23197425  0.44437006    -0.22900
C737        C  0.43855617  0.14549640  0.92322976    -0.05700
C738        C  0.47042443  0.10274410  0.94360973     0.00200
C739        C  0.51148613  0.05999511  0.92676885    -0.08400
C740        C  0.50620666  0.05513117  0.89327458    -0.05700
C741        C  0.46940056  0.09388563  0.87443281     0.00200
C742        C  0.43674906  0.14175107  0.88972054    -0.08300
C743        C  0.39904795  0.18895340  0.87088923     0.62100
H744        H  0.40935052  0.17969549  0.93412941     0.12800
H745        H  0.53286533  0.02018226  0.88111459     0.12800
C746        C  0.56391543  0.01778593  0.93900246     0.62300
F747        F  0.37807640  0.23651416  0.88950988    -0.22800
F748        F  0.34765874  0.16056872  0.85858022    -0.20200
F749        F  0.43524074  0.21495658  0.84636961    -0.19800
F750        F  0.54607962  0.95654158  0.93710677    -0.19900
F751        F  0.58425839  0.02702181  0.96896692    -0.20200
F752        F  0.61606161  0.02686031  0.91948633    -0.22900
C753        C  0.34285120  0.06918081  0.96083472    -0.05700
C754        C  0.37916130  0.08719154  0.98690202     0.00200
C755        C  0.34536747  0.08623563  0.51746996    -0.08400
C756        C  0.27956330  0.07481451  0.51867775    -0.05700
C757        C  0.24566374  0.06042230  0.99182501     0.00200
C758        C  0.27853878  0.05648790  0.96273736    -0.08300
C759        C  0.24454493  0.03966871  0.93322905     0.62100
H760        H  0.36448692  0.06256325  0.93810002     0.12800
H761        H  0.25365161  0.07638007  0.54092522     0.12800
C762        C  0.37664386  0.09279654  0.54943586     0.62300
F763        F  0.28330751  0.03750491  0.90662233    -0.22800
F764        F  0.19947719  0.08357277  0.92729395    -0.20200
F765        F  0.21715116  0.98207227  0.93813992    -0.19800
F766        F  0.41572572  0.14327444  0.54957566    -0.19900
F767        F  0.40989213  0.03998273  0.55671324    -0.20200
F768        F  0.33351414  0.10010615  0.57389675    -0.22900
C769        C  0.96992420  0.49999409  0.61587007    -0.05700
C770        C  0.95365933  0.44098712  0.60416190     0.00200
C771        C  0.94999606  0.39104620  0.62784340    -0.08400
C772        C  0.97532554  0.39940681  0.65776786    -0.05700
C773        C  0.99067948  0.45726165  0.66874284     0.00200
C774        C  0.98767542  0.50901752  0.64758721    -0.08300
C775        C  0.00589989  0.57287405  0.65804600     0.62100
H776        H  0.96804252  0.53999547  0.60000675     0.12800
H777        H  0.97885667  0.36020789  0.67413816     0.12800
C778        C  0.91051848  0.33281141  0.62585927     0.62300
F779        F  0.00615919  0.61608513  0.63309053    -0.22800
F780        F  0.06493680  0.57101950  0.67033236    -0.20200
F781        F  0.96426599  0.59225795  0.68105850    -0.19800
F782        F  0.94205438  0.28720789  0.61015063    -0.19900
F783        F  0.85553375  0.34691334  0.61172718    -0.20200
F784        F  0.89404092  0.30815255  0.65562060    -0.22900
C785        C  0.83060312  0.47499442  0.59110155    -0.05700
C786        C  0.86530706  0.45731160  0.56362184     0.00200
C787        C  0.83443125  0.46444646  0.53355969    -0.08400
C788        C  0.77489308  0.49109379  0.53311711    -0.05700
C789        C  0.74291829  0.51009156  0.56055938     0.00200
C790        C  0.77184695  0.50256243  0.59018157    -0.08300
C791        C  0.74228847  0.52425884  0.62113179     0.62100
H792        H  0.84882234  0.46761745  0.61436453     0.12800
H793        H  0.75215641  0.49543415  0.51047455     0.12800
C794        C  0.85756665  0.44353382  0.50095448     0.62300
F795        F  0.78338399  0.52236494  0.64593364    -0.22800
F796        F  0.69233530  0.48662830  0.62999025    -0.20200
F797        F  0.72287388  0.58493580  0.61731650    -0.19800
F798        F  0.81537376  0.40231482  0.48921428    -0.19900
F799        F  0.91491139  0.41564981  0.50083573    -0.20200
F800        F  0.86055976  0.49394795  0.97965909    -0.22900
C801        C  0.01076538  0.34895453  0.55915775    -0.05700
C802        C  0.94734805  0.36718269  0.55734521     0.00200
C803        C  0.90433499  0.31783696  0.54851584    -0.08400
C804        C  0.92931326  0.26001875  0.53989655    -0.05700
C805        C  0.99160375  0.24447644  0.54269556     0.00200
C806        C  0.03363669  0.28995903  0.55213906    -0.08300
C807        C  0.10252988  0.27615554  0.55592914     0.62100
H808        H  0.04358353  0.37992483  0.56849135     0.12800
H809        H  0.89835846  0.22384085  0.53229769     0.12800
C810        C  0.83278533  0.31226799  0.54999477     0.62300
F811        F  0.13367029  0.32348120  0.57029062    -0.22800
F812        F  0.13027634  0.26833918  0.52643119    -0.20200
F813        F  0.10992832  0.22300061  0.57456260    -0.19800
F814        F  0.81156143  0.30084969  0.52004122    -0.19900
F815        F  0.79931000  0.36023109  0.56172017    -0.20200
F816        F  0.81656976  0.26142718  0.56934717    -0.22900
C817        C  0.52696980  0.95890600  0.52408146    -0.05700
C818        C  0.57378154  0.98302228  0.54378669     0.00200
C819        C  0.57441260  0.05007209  0.54417018    -0.08400
C820        C  0.53275015  0.08574671  0.52527374    -0.05700
C821        C  0.49035730  0.06146167  0.50365841     0.00200
C822        C  0.48599433  0.99409406  0.00453993    -0.08300
C823        C  0.43695808  0.95693215  0.98725831     0.62100
H824        H  0.51953166  0.90999616  0.52425048     0.12800
H825        H  0.53436787  0.13495428  0.52801979     0.12800
C826        C  0.61600880  0.09038446  0.56377251     0.62300
F827        F  0.45233007  0.89494369  0.98550182    -0.22800
F828        F  0.43007831  0.97766716  0.95645482    -0.20200
F829        F  0.38063672  0.95971943  0.00344608    -0.19800
F830        F  0.65019407  0.12993549  0.54363739    -0.19900
F831        F  0.65704894  0.05858332  0.58207663    -0.20200
F832        F  0.57953376  0.12551747  0.58369562    -0.22900
C833        C  0.54914522  0.98241321  0.61315425    -0.05700
C834        C  0.60524176  0.95332092  0.60248205     0.00200
C835        C  0.64787041  0.94137306  0.62787854    -0.08400
C836        C  0.62317152  0.92797614  0.65838847    -0.05700
C837        C  0.56749279  0.95486302  0.66916349     0.00200
C838        C  0.53093305  0.98568064  0.64593049    -0.08300
C839        C  0.47282257  0.02056737  0.65533781     0.62100
H840        H  0.51761253  0.00113207  0.59590028     0.12800
H841        H  0.65436432  0.90751295  0.67558933     0.12800
C842        C  0.71578755  0.96294828  0.62982349     0.62300
F843        F  0.44569251  0.04965764  0.62944372    -0.22800
F844        F  0.48772661  0.06543811  0.67655722    -0.20200
F845        F  0.42972039  0.98002490  0.66930024    -0.19800
F846        F  0.73891705  0.99559727  0.60375382    -0.19900
F847        F  0.75371882  0.91301493  0.63623947    -0.20200
F848        F  0.72104566  0.00265930  0.65482122    -0.22900
C849        C  0.61775075  0.83774971  0.53074932    -0.05700
C850        C  0.59324201  0.86549712  0.55872623     0.00200
C851        C  0.54807954  0.82713122  0.57625058    -0.08400
C852        C  0.54459889  0.76286141  0.57064825    -0.05700
C853        C  0.57536588  0.73454641  0.54541124     0.00200
C854        C  0.61024088  0.77375973  0.52399691    -0.08300
C855        C  0.64265752  0.74768156  0.49517321     0.62100
H856        H  0.64548617  0.86651313  0.51441957     0.12800
H857        H  0.51575429  0.73338381  0.58620144     0.12800
C858        C  0.49811483  0.85067650  0.59867560     0.62300
F859        F  0.67829013  0.79185399  0.97839504    -0.22800
F860        F  0.59918423  0.72501138  0.97486810    -0.20200
F861        F  0.68209292  0.70052022  0.50458644    -0.19800
F862        F  0.47169139  0.90365901  0.58605893    -0.19900
F863        F  0.52260941  0.85964197  0.62801608    -0.20200
F864        F  0.44965287  0.80869564  0.60328020    -0.22900
C865        C  0.71333416  0.98618765  0.53562097    -0.05700
C866        C  0.68852715  0.93824109  0.55642558     0.00200
C867        C  0.73452942  0.89389831  0.56775345    -0.08400
C868        C  0.79879136  0.90639725  0.56207424    -0.05700
C869        C  0.82264760  0.96029511  0.54641511     0.00200
C870        C  0.77839458  0.99935845  0.53145433    -0.08300
C871        C  0.79940638  0.05425711  0.51057059     0.62100
H872        H  0.68166236  0.01565269  0.52299286     0.12800
H873        H  0.83190307  0.87300453  0.57095402     0.12800
C874        C  0.72143780  0.83088761  0.58472905     0.62300
F875        F  0.75037062  0.08183351  0.49491734    -0.22800
F876        F  0.84196017  0.03512623  0.48787643    -0.20200
F877        F  0.82653602  0.09826552  0.52895581    -0.19800
F878        F  0.71796914  0.78578608  0.56243400    -0.19900
F879        F  0.66843656  0.82941353  0.60352483    -0.20200
F880        F  0.76924520  0.81391328  0.60462366    -0.22900
C881        C  0.43335333  0.32573237  0.71836649    -0.05700
C882        C  0.47345367  0.36836910  0.73271966     0.00200
C883        C  0.51918760  0.34249211  0.75389057    -0.08400
C884        C  0.52748006  0.27893344  0.75518224    -0.05700
C885        C  0.47915418  0.24069556  0.74732736     0.00200
C886        C  0.43320107  0.26276756  0.72648822    -0.08300
C887        C  0.38399699  0.22131542  0.71280240     0.62100
H888        H  0.39911322  0.34261284  0.70193307     0.12800
H889        H  0.56516669  0.25955640  0.76892313     0.12800
C890        C  0.54548421  0.37278295  0.78235745     0.62300
F891        F  0.35809870  0.24834367  0.68600216    -0.22800
F892        F  0.33675028  0.21052227  0.73506795    -0.20200
F893        F  0.40980698  0.16568218  0.70415539    -0.19800
F894        F  0.55378515  0.33132681  0.80775244    -0.19900
F895        F  0.50434543  0.41507548  0.79349990    -0.20200
F896        F  0.60261028  0.39801970  0.77447519    -0.22900
C897        C  0.29599666  0.46584047  0.76748806    -0.05700
C898        C  0.26069159  0.48352248  0.74159037     0.00200
C899        C  0.28485928  0.47677894  0.71066713    -0.08400
C900        C  0.34496184  0.45413881  0.70714318    -0.05700
C901        C  0.38531787  0.44290637  0.73299493     0.00200
C902        C  0.35377012  0.43694560  0.76365689    -0.08300
C903        C  0.37001698  0.39610044  0.79237577     0.62100
H904        H  0.27433766  0.46699382  0.79097449     0.12800
H905        H  0.35950952  0.44394266  0.68332697     0.12800
C906        C  0.24839975  0.49426374  0.68118044     0.62300
F907        F  0.31690063  0.36686150  0.80469459    -0.22800
F908        F  0.39281294  0.43226741  0.81569061    -0.20200
F909        F  0.41007939  0.34908538  0.78600595    -0.19800
F910        F  0.22015279  0.55103176  0.68485993    -0.19900
F911        F  0.20380147  0.44975652  0.67608166    -0.20200
F912        F  0.28642079  0.49901880  0.65426721    -0.22900
C913        C  0.45619623  0.43964925  0.63269332    -0.05700
C914        C  0.43506807  0.49992682  0.62754997     0.00200
C915        C  0.43327611  0.54071751  0.65283199    -0.08400
C916        C  0.45372241  0.51975773  0.68245753    -0.05700
C917        C  0.46957086  0.45679555  0.68931584     0.00200
C918        C  0.47769014  0.41761887  0.66220888    -0.08300
C919        C  0.51191756  0.35588792  0.65904568     0.62100
H920        H  0.46127854  0.41056174  0.61227777     0.12800
H921        H  0.44885733  0.55164017  0.70160123     0.12800
C922        C  0.40687104  0.60575543  0.65011943     0.62300
F923        F  0.47042561  0.31121180  0.64982735    -0.22800
F924        F  0.54175323  0.33333603  0.68524149    -0.20200
F925        F  0.55741096  0.36301413  0.63542080    -0.19800
F926        F  0.37272069  0.61524752  0.62300708    -0.19900
F927        F  0.45496067  0.64830651  0.65002002    -0.20200
F928        F  0.36747563  0.61605524  0.67581214    -0.22900
C929        C  0.99745950  0.54142232  0.99718255    -0.05700
C930        C  0.06199906  0.55028299  0.50191747     0.00200
C931        C  0.08044055  0.53381665  0.53427247    -0.08400
C932        C  0.04152872  0.49276600  0.55291442    -0.05700
C933        C  0.97785843  0.48443690  0.54678750     0.00200
C934        C  0.95710565  0.52839592  0.52349351    -0.08300
C935        C  0.91767355  0.58423400  0.03267483     0.62100
H936        H  0.97641375  0.55808479  0.97557210     0.12800
H937        H  0.05957394  0.47306534  0.57457770     0.12800
C938        C  0.13443339  0.56140145  0.55214775     0.62300
F939        F  0.95536611  0.63586229  0.03406744    -0.22800
F940        F  0.88957226  0.57744484  0.56225834    -0.20200
F941        F  0.87301498  0.59607072  0.01029111    -0.19800
F942        F  0.19077752  0.53868234  0.54225949    -0.19900
F943        F  0.13001590  0.54770906  0.58446721    -0.20200
F944        F  0.13331993  0.62480819  0.54932850    -0.22900
C945        C  0.25096623  0.48281954  0.48929887    -0.05700
C946        C  0.29639592  0.51976078  0.97442425     0.00200
C947        C  0.27840410  0.56708353  0.95279672    -0.08400
C948        C  0.21526127  0.58319436  0.95211868    -0.05700
C949        C  0.16921454  0.55336671  0.97173796     0.00200
C950        C  0.18740914  0.49340759  0.48464302    -0.08300
C951        C  0.14776281  0.43583710  0.49217737     0.62100
H952        H  0.26535737  0.44284737  0.50344100     0.12800
H953        H  0.20302647  0.62195173  0.93751434     0.12800
C954        C  0.32559905  0.60283605  0.93192799     0.62300
F955        F  0.17336476  0.38654604  0.47633968    -0.22800
F956        F  0.08731901  0.43971406  0.48301526    -0.20200
F957        F  0.14881141  0.42140008  0.52432043    -0.19800
F958        F  0.35423085  0.56313474  0.91113994    -0.19900
F959        F  0.36990857  0.62940913  0.95051618    -0.20200
F960        F  0.29822544  0.64960763  0.91401017    -0.22900
C961        C  0.09428163  0.61463792  0.88156848    -0.05700
C962        C  0.06688536  0.56066936  0.87195470     0.00200
C963        C  0.04557596  0.51724299  0.89526388    -0.08400
C964        C  0.05485273  0.52909992  0.92781122    -0.05700
C965        C  0.08014390  0.58543012  0.93887712     0.00200
C966        C  0.09601450  0.63178352  0.91357970    -0.08300
C967        C  0.10802280  0.70178918  0.91689234     0.62100
H968        H  0.10939357  0.64641106  0.86259483     0.12800
H969        H  0.04064032  0.49372326  0.94468881     0.12800
C970        C  0.01575953  0.45741972  0.88534212     0.62300
F971        F  0.12127451  0.73226356  0.88833755    -0.22800
F972        F  0.15795337  0.71485001  0.93503854    -0.20200
F973        F  0.05518176  0.72992620  0.92803848    -0.19800
F974        F  0.05613243  0.42689399  0.86525631    -0.19900
F975        F  0.96148033  0.47021980  0.86953917    -0.20200
F976        F  0.00145579  0.41827189  0.91110128    -0.22900
C977        C  0.03939163  0.68004278  0.98491692    -0.05700
C978        C  0.10061765  0.65585131  0.98617545     0.00200
C979        C  0.14769935  0.69903376  0.49614447    -0.08400
C980        C  0.13138589  0.76243109  0.49902663    -0.05700
C981        C  0.07047071  0.78407979  0.99673217     0.00200
C982        C  0.02292705  0.74128761  0.99079653    -0.08300
C983        C  0.95504662  0.76063126  0.98756568     0.62100
H984        H  0.00334012  0.65182854  0.97605006     0.12800
H985        H  0.16694611  0.79597342  0.50433921     0.12800
C986        C  0.21594663  0.68677797  0.50292682     0.62300
F987        F  0.91867300  0.71458204  0.97532628    -0.22800
F988        F  0.95101723  0.81204305  0.96732147    -0.20200
F989        F  0.92993618  0.77404002  0.01702284    -0.19800
F990        F  0.25250647  0.70741718  0.47734434    -0.19900
F991        F  0.22938536  0.62636331  0.50991868    -0.20200
F992        F  0.23317199  0.71905120  0.52921772    -0.22900
C993        C  0.97342330  0.00253227  0.80040779    -0.05700
C994        C  0.97313033  0.06755819  0.79354685     0.00200
C995        C  0.01851810  0.08836154  0.76992397    -0.08400
C996        C  0.04743159  0.04355686  0.75134301    -0.05700
C997        C  0.04893704  0.97879229  0.75863588     0.00200
C998        C  0.01266275  0.95874815  0.78634860    -0.08300
C999        C  0.01503372  0.89612161  0.80475053     0.62100
H1000       H  0.94144837  0.98621987  0.81866996     0.12800
H1001       H  0.07561508  0.06058899  0.73152491     0.12800
C1002       C  0.04312063  0.15413185  0.76270447     0.62300
F1003       F  0.97084561  0.89095637  0.82914104    -0.22800
F1004       F  0.07147205  0.89056364  0.81934248    -0.20200
F1005       F  0.00394782  0.84654035  0.78602835    -0.19800
F1006       F  0.04876345  0.18826885  0.78935154    -0.19900
F1007       F  0.00633878  0.18357778  0.74059643    -0.20200
F1008       F  0.10280516  0.15336889  0.74960678    -0.22900
C1009       C  0.91126603  0.19932313  0.78245503    -0.05700
C1010       C  0.93573131  0.17827167  0.81196251     0.00200
C1011       C  0.95995328  0.22602780  0.83231722    -0.08400
C1012       C  0.96748887  0.28630195  0.81884933    -0.05700
C1013       C  0.94852375  0.30333421  0.78847966     0.00200
C1014       C  0.91669467  0.26051813  0.77062581    -0.08300
C1015       C  0.89335804  0.27807028  0.73799061     0.62100
H1016       H  0.89129967  0.16573421  0.76713616     0.12800
H1017       H  0.99264706  0.32095851  0.83157246     0.12800
C1018       C  0.98722157  0.22093698  0.86587110     0.62300
F1019       F  0.86263652  0.22955082  0.72437715    -0.22800
F1020       F  0.94304764  0.29512128  0.71837668    -0.20200
F1021       F  0.85265993  0.32712466  0.74016584    -0.19800
F1022       F  0.97610058  0.27507700  0.88179030    -0.19900
F1023       F  0.05095894  0.21402543  0.86324924    -0.20200
F1024       F  0.96297492  0.17520912  0.88587741    -0.22900
C1025       C  0.84266833  0.04599573  0.79017559    -0.05700
C1026       C  0.85842738  0.09126114  0.81233811     0.00200
C1027       C  0.80682417  0.12800048  0.82366141    -0.08400
C1028       C  0.74735327  0.11918709  0.81116393    -0.05700
C1029       C  0.73424924  0.07103212  0.79104183     0.00200
C1030       C  0.78233251  0.03020034  0.78266198    -0.08300
C1031       C  0.77187257  0.96866235  0.76668245     0.62100
H1032       H  0.87665368  0.02140807  0.77734835     0.12800
H1033       H  0.70994040  0.15003419  0.81771583     0.12800
C1034       C  0.81015775  0.17943429  0.84728696     0.62300
F1035       F  0.82433151  0.93171013  0.76720877    -0.22800
F1036       F  0.75637575  0.97851009  0.73528658    -0.20200
F1037       F  0.72545434  0.93559191  0.78287514    -0.19800
F1038       F  0.81511574  0.23614465  0.83134413    -0.19900
F1039       F  0.85863853  0.17181447  0.86732670    -0.20200
F1040       F  0.75688140  0.17965297  0.86635323    -0.22900
C1041       C  0.02134188  0.08835764  0.85166261    -0.05700
C1042       C  0.95557195  0.08194012  0.85030588     0.00200
C1043       C  0.92609674  0.04195885  0.87474735    -0.08400
C1044       C  0.96285393  0.02190217  0.90043080    -0.05700
C1045       C  0.02719561  0.03030045  0.90044839     0.00200
C1046       C  0.05686673  0.05720724  0.87388422    -0.08300
C1047       C  0.12508106  0.04915065  0.86679183     0.62100
H1048       H  0.04663577  0.11354881  0.83297408     0.12800
H1049       H  0.94131784  0.00102879  0.92166908     0.12800
C1050       C  0.85918072  0.01698402  0.87569926     0.62300
F1051       F  0.13259085  0.02648051  0.83667685    -0.22800
F1052       F  0.15094134  0.00666252  0.88761767    -0.20200
F1053       F  0.15546261  0.10540296  0.86808535    -0.19800
F1054       F  0.84613116  0.98575148  0.84869524    -0.19900
F1055       F  0.81698626  0.06354377  0.88013566    -0.20200
F1056       F  0.84893679  0.97457942  0.90063125    -0.22900
C1057       C  0.59516038  0.52768740  0.76385952    -0.05700
C1058       C  0.56604526  0.55533230  0.79046735     0.00200
C1059       C  0.49919362  0.55798672  0.78911667    -0.08400
C1060       C  0.46826019  0.52510817  0.76565461    -0.05700
C1061       C  0.49840130  0.48525907  0.74433971     0.00200
C1062       C  0.56401943  0.49525059  0.74047238    -0.08300
C1063       C  0.60371582  0.47402385  0.71223741     0.62100
H1064       H  0.64354838  0.53511934  0.75933153     0.12800
H1065       H  0.41910285  0.53238530  0.76383663     0.12800
C1066       C  0.45686528  0.59954991  0.80853639     0.62300
F1067       F  0.58567625  0.50349770  0.68445285    -0.22800
F1068       F  0.59952139  0.41136028  0.70971925    -0.20200
F1069       F  0.66637584  0.48699735  0.71512771    -0.19800
F1070       F  0.44718335  0.65420582  0.79153438    -0.19900
F1071       F  0.47993446  0.61260569  0.83750507    -0.20200
F1072       F  0.39962603  0.57144047  0.81451021    -0.22900
C1073       C  0.53785079  0.76512858  0.81171925    -0.05700
C1074       C  0.54337170  0.77839540  0.77942275     0.00200
C1075       C  0.56764351  0.73496673  0.75894305    -0.08400
C1076       C  0.58783425  0.67874260  0.77195696    -0.05700
C1077       C  0.58683228  0.66363229  0.80529249     0.00200
C1078       C  0.56310653  0.71145717  0.82605293    -0.08300
C1079       C  0.56915246  0.71546955  0.86221107     0.62100
H1080       H  0.51983998  0.80214285  0.82593295     0.12800
H1081       H  0.60793055  0.64656245  0.75566257     0.12800
C1082       C  0.57355029  0.74929912  0.72348124     0.62300
F1083       F  0.54039754  0.76715641  0.87433696    -0.22800
F1084       F  0.63095220  0.72160771  0.86949416    -0.20200
F1085       F  0.54178628  0.66618941  0.87854543    -0.19800
F1086       F  0.61773833  0.79506723  0.71761840    -0.19900
F1087       F  0.51703858  0.76966361  0.71224786    -0.20200
F1088       F  0.59094498  0.69785405  0.70677134    -0.22900
C1089       C  0.71443380  0.63817790  0.79242244    -0.05700
C1090       C  0.68011096  0.58584298  0.80424802     0.00200
C1091       C  0.71414028  0.52764572  0.80534698    -0.08400
C1092       C  0.76715983  0.52262016  0.78581433    -0.05700
C1093       C  0.80062915  0.57482136  0.77610378     0.00200
C1094       C  0.77316458  0.63354242  0.77805646    -0.08300
C1095       C  0.80426724  0.69264474  0.76531314     0.62100
H1096       H  0.69685663  0.68449597  0.79478405     0.12800
H1097       H  0.79016259  0.47810865  0.78435634     0.12800
C1098       C  0.70844017  0.47173774  0.82860578     0.62300
F1099       F  0.76292642  0.72594545  0.74686248    -0.22800
F1100       F  0.85628208  0.68124863  0.74655765    -0.20200
F1101       F  0.82130211  0.72813355  0.79042256    -0.19800
F1102       F  0.67353571  0.48018362  0.85547301    -0.22300
F1103       F  0.76683829  0.45653621  0.83965959    -0.20200
F1104       F  0.68661373  0.42116964  0.81313531    -0.22900
C1105       C  0.65217068  0.60250777  0.86848730    -0.05700
C1106       C  0.60480305  0.57749827  0.84942058     0.00200
C1107       C  0.56236912  0.53517709  0.86537701    -0.08400
C1108       C  0.55706407  0.53602208  0.89809362    -0.05700
C1109       C  0.60550217  0.55745794  0.91611916     0.00200
C1110       C  0.65477332  0.59081664  0.90134812    -0.08300
C1111       C  0.70918971  0.61394651  0.91992572     0.62100
H1112       H  0.68829879  0.63110337  0.85742918     0.12800
H1113       H  0.51917104  0.51018396  0.90952328     0.12800
C1114       C  0.53786419  0.47627741  0.85215177     0.62300
F1115       F  0.75505235  0.64036774  0.90027927    -0.22800
F1116       F  0.73534257  0.56534783  0.93700511    -0.20200
F1117       F  0.68880340  0.65820985  0.94054751    -0.19800
F1118       F  0.53859969  0.42752685  0.87439819    -0.19900
F1119       F  0.57545456  0.45851899  0.82770617    -0.20200
F1120       F  0.47755648  0.48441629  0.84320837    -0.22900
loop_ 
_geom_bond_atom_site_label_1 
_geom_bond_atom_site_label_2 
_geom_bond_distance 
_geom_bond_site_symmetry_2 
_ccdc_geom_bond_type 
C1          C498   1.601       .  S
C1          C517   1.595       .  S
C1          C530   1.596       .  S
C1          C546   1.556       .  S
C2          C434   1.617       .  S
C2          C450   1.577       .  S
C2          C466   1.593       .  S
C2          C482   1.567       .  S
C3          C389   1.578       .  S
C3          C405   1.624       .  S
C3          C418   1.594       .  S
C3          C930   1.611       .  S
C4          C322   1.550       .  S
C4          C341   1.609       .  S
C4          C357   1.579       .  S
C4          C501   1.586       .  S
C5          C258   1.636       .  S
C5          C274   1.622       .  S
C5          C290   1.624       .  S
C5          C306   1.619       .  S
C6          C210   1.606       .  S
C6          C226   1.567       .  S
C6          C242   1.602       .  S
C6          C373   1.617       .  S
C7          C162   1.647       .  S
C7          C178   1.626       .  S
C7          C194   1.626       .  S
C7          C821   1.606       .  S
C8          C114   1.603       .  S
C8          C133   1.578       .  S
C8          C149   1.573       .  S
C8          C437   1.602       .  S
O9           C30   1.269       .  A
O9         Ni575   1.918   1_554  S
O10          C19   1.274       .  A
O10         Ni33   1.940       .  S
O11          H34   0.967   1_455  S
O11         Ni27   1.897   1_556  S
O11        Ni575   1.900       .  S
O11        Ni593   1.908   1_545  S
C12          O29   1.278   1_565  A
C12          O21   1.274       .  A
C12         C146   1.450   1_565  S
O13         C579   1.263       .  A
O13         Ni32   1.900       .  S
O14          C16   1.268       .  A
O14         Ni32   1.908   1_655  S
Ni15         O18   1.913       .  S
Ni15         O20   1.917       .  S
Ni15        O569   1.918       .  S
Ni15        O571   1.900       .  S
C16          O26   1.287   1_565  A
C16         C309   1.542       .  S
O17          C23   1.279   1_565  A
O17         Ni33   1.913       .  S
O18          C23   1.279       .  A
C19         O573   1.263       .  A
C19         C421   1.491       .  S
O20          C22   1.267       .  A
O21         Ni32   1.893       .  S
C22          O28   1.284       .  A
C22         C197   1.517       .  S
C23         C485   1.458       .  S
H24          O25   0.966       .  S
O25         Ni27   1.909   1_565  S
O25         Ni32   1.890       .  S
O25        Ni593   1.903   1_554  S
O26         Ni27   1.995   1_655  S
Ni27         O31   1.926   1_455  S
Ni27         O29   1.917       .  S
O28         Ni33   1.980   1_545  S
C30          O31   1.277   1_455  A
C30         C245   1.491   1_455  S
Ni33        O571   1.908   1_565  S
Ni33        O585   1.903       .  S
O35          C56   1.262       .  A
O35         Ni41   1.884   1_565  S
O36          C45   1.264       .  A
O36         Ni59   1.913       .  S
O37          H60   0.966       .  S
O37         Ni41   1.880       .  S
O37         Ni59   1.875       .  S
O37         Ni53   1.898   1_545  S
C38          O55   1.278       .  A
C38          O47   1.275       .  A
C38         C514   1.449       .  S
O39          C45   1.257       .  A
O39         Ni58   1.896   1_545  S
O40          C42   1.264       .  A
O40         Ni58   1.885       .  S
Ni41         O44   1.886       .  S
Ni41         O46   1.922       .  S
C42          O52   1.281       .  A
C42         C277   1.519       .  S
O43          C49   1.282       .  A
O43         Ni59   1.899       .  S
O44          C49   1.273       .  A
C45         C469   1.477       .  S
O46          C48   1.266       .  A
O47         Ni58   1.894       .  S
C48          O54   1.276       .  A
C48         C181   1.520       .  S
C49         C325   1.455       .  S
H50          O51   0.966       .  S
O51         Ni59   1.912   1_565  S
O51         Ni53   1.904       .  S
O51         Ni58   1.884       .  S
O52         Ni53   1.979       .  S
Ni53         O57   1.913       .  S
Ni53         O55   1.915       .  S
O54         Ni59   1.961       .  S
C56          O57   1.275       .  A
C56         C117   1.485       .  S
O61          C82   1.265       .  A
O61         Ni67   1.896       .  S
O62          C71   1.274       .  A
O62         Ni85   1.916       .  S
O63          H86   0.967       .  S
O63         Ni67   1.879       .  S
O63        Ni645   1.880       .  S
O63        Ni639   1.934       .  S
C64          O81   1.280       .  A
C64          O73   1.279       .  A
C64         C229   1.490       .  S
O65          C71   1.263       .  A
O65         Ni84   1.892       .  S
O66          C68   1.268       .  A
O66         Ni84   1.917       .  S
Ni67         O70   1.916       .  S
Ni67         O72   1.907       .  S
C68          O78   1.280       .  A
C68         C293   1.525       .  S
O69          C75   1.287   1_554  A
O69         Ni85   1.926       .  S
O70         C635   1.281       .  A
C71         C354   1.466       .  S
O72          C74   1.264       .  A
O73         Ni84   1.913       .  S
C74         O640   1.285       .  A
C74         C165   1.521       .  S
C75         O630   1.281       .  A
C75         C946   1.470       .  S
H76          O77   0.966       .  S
O77         Ni85   1.938       .  S
O77         Ni79   1.881       .  S
O77         Ni84   1.879       .  S
O78         Ni79   1.975       .  S
Ni79         O81   1.918       .  S
Ni79        O643   1.896   1_554  S
Ni79        O623   1.934   1_554  S
O80         C634   1.286       .  A
O80         Ni85   1.994       .  S
C82          O83   1.260       .  A
C82         C549   1.458       .  S
O83        Ni639   1.897       .  S
Ni85        O623   1.880   1_554  S
O87         C108   1.271       .  A
O87         Ni93   1.901       .  S
O88          C97   1.265       .  A
O88        Ni111   1.894       .  S
O89         H112   0.967       .  S
O89         Ni93   1.902   1_455  S
O89        Ni111   1.902       .  S
O89        Ni105   1.912   1_455  S
C90         O107   1.285       .  A
C90          O99   1.277   1_655  A
C90         C453   1.472       .  S
O91          C97   1.264       .  A
O91        Ni110   1.908       .  S
O92          C94   1.265       .  A
O92        Ni110   1.903       .  S
Ni93         O96   1.919   1_655  S
Ni93         O98   1.914       .  S
C94         O104   1.272   1_455  A
C94         C213   1.492   1_455  S
O95         C101   1.264       .  A
O95        Ni111   1.902       .  S
O96         C101   1.265       .  A
C97         C338   1.458       .  S
O98         C100   1.269   1_655  A
O99        Ni110   1.904       .  S
C100        O106   1.286       .  A
C100        C402   1.493       .  S
C101        C130   1.458       .  S
H102        O103   0.966       .  S
O103       Ni111   1.892       .  S
O103       Ni105   1.890   1_455  S
O103       Ni110   1.887       .  S
O104       Ni105   1.947       .  S
Ni105       O109   1.898       .  S
Ni105       O107   1.947       .  S
O106       Ni111   1.978       .  S
C108        O109   1.272       .  A
C108        C533   1.460       .  S
C113        C114   1.422       .  A
C113        C118   1.393   1_565  A
C113        H120   1.066   1_565  S
C114        C115   1.457       .  A
C115        C122   1.535       .  S
C115        C116   1.409       .  A
C116        C117   1.393       .  A
C116        H121   1.082       .  S
C117        C118   1.416   1_565  A
C118        C119   1.528       .  S
C119        F123   1.386       .  S
C119        F124   1.378       .  S
C119        F125   1.382       .  S
C122        F126   1.386       .  S
C122        F127   1.370       .  S
C122        F128   1.374       .  S
C129        C130   1.392       .  A
C129        C134   1.409       .  A
C129        H136   1.086       .  S
C130        C131   1.391       .  A
C131        C138   1.514       .  S
C131        C132   1.393       .  A
C132        C133   1.430       .  A
C132        H137   1.078       .  S
C133        C134   1.457       .  A
C134        C135   1.534       .  S
C135        F139   1.369       .  S
C135        F140   1.380   1_455  S
C135        F141   1.387       .  S
C138        F142   1.383       .  S
C138        F143   1.375       .  S
C138        F144   1.385       .  S
C145        C146   1.387   1_665  A
C145        C150   1.402       .  A
C145        H152   1.084       .  S
C146        C147   1.400       .  A
C147        C154   1.521       .  S
C147        C148   1.398       .  A
C148        C149   1.426   1_545  A
C148        H153   1.077       .  S
C149        C150   1.445   1_455  A
C150        C151   1.517       .  S
C151        F155   1.375       .  S
C151        F156   1.368       .  S
C151        F157   1.385       .  S
C154        F158   1.383       .  S
C154        F159   1.383       .  S
C154        F160   1.384       .  S
C161        C162   1.438       .  A
C161        C166   1.430       .  A
C161        H168   1.073       .  S
C162        C163   1.459       .  A
C163        C730   1.514       .  S
C163        C164   1.424       .  A
C164        C165   1.394       .  A
C164        H729   1.086       .  S
C165        C166   1.415       .  A
C166        C167   1.517       .  S
C167        F171   1.385       .  S
C167        F172   1.382       .  S
C167        F173   1.383       .  S
H169        C724   1.086       .  S
C170        C723   1.514       .  S
C170        F175   1.384       .  S
C170        F176   1.384       .  S
C170        F734   1.352       .  S
F174        C730   1.352       .  S
C177        C178   1.430       .  A
C177        C182   1.420       .  A
C177        H184   1.080       .  S
C178        C179   1.470       .  A
C179        C186   1.542       .  S
C179        C180   1.427       .  A
C180        C181   1.398       .  A
C180        H185   1.085       .  S
C181        C182   1.418       .  A
C182        C183   1.521       .  S
C183        F187   1.385       .  S
C183        F188   1.383       .  S
C183        F189   1.384       .  S
C186        F190   1.383   1_545  S
C186        F191   1.367       .  S
C186        F192   1.386       .  S
C193        C194   1.427       .  A
C193        C198   1.410       .  A
C193        H200   1.070       .  S
C194        C755   1.459       .  A
C195        C202   1.531       .  S
C195        C196   1.437       .  A
C195        C754   1.459   1_554  A
C196        C757   1.404   1_554  A
C196        H201   1.082       .  S
C197        C198   1.407       .  A
C197        C756   1.404       .  A
C198        C199   1.512       .  S
C199        F203   1.385       .  S
C199        F204   1.381       .  S
C199        F205   1.384   1_545  S
C202        F206   1.376       .  S
C202        F207   1.380       .  S
C202        F208   1.385       .  S
C209        C210   1.428       .  A
C209        C214   1.419       .  A
C209        H216   1.078       .  S
C210        C211   1.448       .  A
C211        C218   1.522       .  S
C211        C212   1.403       .  A
C212        C213   1.389       .  A
C212        H217   1.080       .  S
C213        C214   1.411       .  A
C214        C215   1.516   1_655  S
C215        F219   1.385       .  S
C215        F220   1.384       .  S
C215        F221   1.382   1_455  S
C218        F222   1.378       .  S
C218        F223   1.368       .  S
C218        F224   1.386       .  S
C225        C226   1.427       .  A
C225        C230   1.400       .  A
C225        H232   1.072       .  S
C226        C227   1.449       .  A
C227        C234   1.534       .  S
C227        C228   1.407       .  A
C228        C229   1.406       .  A
C228        H233   1.084       .  S
C229        C230   1.413       .  A
C230        C231   1.527       .  S
C231        F235   1.385       .  S
C231        F236   1.384       .  S
C231        F237   1.384       .  S
C234        F238   1.381   1_554  S
C234        F239   1.376       .  S
C234        F800   1.383   1_554  S
F240        C794   1.383       .  S
C241        C242   1.425   1_455  A
C241        C246   1.407       .  A
C241        H248   1.063       .  S
C242        C243   1.473       .  A
C243        C250   1.544       .  S
C243        C244   1.418       .  A
C244        C245   1.390       .  A
C244        H249   1.087       .  S
C245        C246   1.407   1_655  A
C246        C247   1.525       .  S
C247        F251   1.385       .  S
C247        F252   1.383       .  S
C247        F253   1.383       .  S
C250        F254   1.382       .  S
C250        F255   1.365       .  S
C250        F256   1.387       .  S
C257        C258   1.429       .  A
C257        C822   1.429       .  A
C257        H264   1.069       .  S
C258        C259   1.450   1_565  A
C259        C266   1.523       .  S
C259        C260   1.425       .  A
C260        C261   1.416       .  A
C260        H265   1.075       .  S
C261        C567   1.606   1_554  S
C261        C822   1.449   1_545  A
C262        C263   1.535       .  S
C262        C817   1.429       .  A
C262        C821   1.449   1_565  A
C263        F267   1.386       .  S
C263        F268   1.372       .  S
C263        F269   1.380       .  S
C266        F270   1.384       .  S
C266        F271   1.360       .  S
C266        F272   1.384       .  S
C273        C274   1.434       .  A
C273        C278   1.432       .  A
C273        H280   1.077   1_565  S
C274        C275   1.444       .  A
C275        C282   1.538       .  S
C275        C276   1.403       .  A
C276        C277   1.407       .  A
C276        H281   1.085       .  S
C277        C278   1.422       .  A
C278        C279   1.515   1_565  S
C279        F283   1.385       .  S
C279        F284   1.383       .  S
C279        F285   1.383   1_545  S
C282        F286   1.370       .  S
C282        F287   1.380       .  S
C282        F288   1.387   1_565  S
C289        C290   1.432       .  A
C289        C294   1.431       .  A
C289        H296   1.081       .  S
C290        C291   1.450       .  A
C291        C298   1.517       .  S
C291        C292   1.419       .  A
C292        C293   1.399       .  A
C292        H297   1.083       .  S
C293        C294   1.419       .  A
C294        C295   1.514   1_554  S
C295        F301   1.384   1_556  S
C295        F859   1.385       .  S
C295        F860   1.382       .  S
C298        F302   1.378       .  S
C298        F303   1.375       .  S
C298        F304   1.387       .  S
F299        C855   1.385       .  S
F300        C855   1.382       .  S
C305        C306   1.430       .  A
C305        C310   1.434       .  A
C305        H312   1.073   1_565  S
C306        C307   1.459       .  A
C307        C314   1.541       .  S
C307        C308   1.422       .  A
C308        C309   1.411       .  A
C308        H313   1.081       .  S
C309        C310   1.421       .  A
C310        C311   1.517   1_565  S
C311        F315   1.385   1_554  S
C311        F316   1.384   1_554  S
C311        F317   1.383       .  S
C314        F318   1.379       .  S
C314        F319   1.374       .  S
C314        F320   1.386       .  S
C321        C322   1.420       .  A
C321        C326   1.394       .  A
C321        H328   1.080       .  S
C322        C323   1.446       .  A
C323        C330   1.508       .  S
C323        C324   1.386       .  A
C324        C325   1.380       .  A
C324        H329   1.085       .  S
C325        C326   1.413       .  A
C326        C327   1.521       .  S
C327        F331   1.385       .  S
C327        F332   1.383       .  S
C327        F333   1.383       .  S
C330        F334   1.390       .  S
C330        F335   1.363       .  S
C330        F336   1.374       .  S
C337        C338   1.389       .  A
C337        C342   1.402       .  A
C337        H344   1.086       .  S
C338        C339   1.404       .  A
C339        C346   1.524       .  S
C339        C340   1.392       .  A
C340        C341   1.425       .  A
C340        H345   1.075       .  S
C341        C342   1.449       .  A
C342        C343   1.525       .  S
C343        F347   1.387       .  S
C343        F348   1.375       .  S
C343        F349   1.364       .  S
C346        F350   1.384       .  S
C346        F351   1.382       .  S
C346        F352   1.385       .  S
C353        C354   1.395       .  A
C353        C358   1.407       .  A
C353        H360   1.086       .  S
C354        C355   1.407       .  A
C355        C362   1.522       .  S
C355        C356   1.397       .  A
C356        C357   1.427       .  A
C356        H361   1.082       .  S
C357        C358   1.452       .  A
C358        C359   1.534       .  S
C359        F363   1.384       .  S
C359        F364   1.368       .  S
C359        F365   1.386       .  S
C362        F366   1.382       .  S
C362        F367   1.383       .  S
C362        F368   1.385       .  S
C369        C930   1.423   1_655  A
C369        C934   1.413       .  A
C369        H376   1.079       .  S
C370        C563   1.610   1_554  S
C370        C371   1.463       .  A
C370        C929   1.422   1_454  A
C371        C378   1.529       .  S
C371        C372   1.424       .  A
C372        C373   1.413   1_455  A
C372        H377   1.077       .  S
C373        C374   1.425       .  A
C374        C935   1.529       .  S
C374        C929   1.413   1_554  A
C375        C934   1.529       .  S
C375        F379   1.381       .  S
C375        F381   1.381       .  S
C375        F940   1.375       .  S
C378        F382   1.372       .  S
C378        F383   1.386       .  S
C378        F384   1.373       .  S
F380        C935   1.375       .  S
C385        C390   1.406       .  A
C385        C946   1.389       .  A
C385        H392   1.085   1_556  S
C386        C635   1.469       .  S
C386        C387   1.410       .  A
C386        C945   1.389       .  A
C387        C394   1.522       .  S
C387        C388   1.405       .  A
C388        C389   1.417       .  A
C388        H393   1.061       .  S
C389        C950   1.450       .  A
C390        C391   1.528       .  S
C390        C949   1.450       .  A
C391        F395   1.385       .  S
C391        F396   1.368       .  S
C391        F397   1.382   1_556  S
C394        F398   1.383       .  S
C394        F399   1.383       .  S
C394        F400   1.384       .  S
C401        C402   1.382       .  A
C401        C406   1.413       .  A
C401        H408   1.081       .  S
C402        C403   1.406       .  A
C403        C410   1.517       .  S
C403        C404   1.423       .  A
C404        C405   1.429       .  A
C404        H409   1.067       .  S
C405        C406   1.474       .  A
C406        C407   1.547       .  S
C407        F411   1.378       .  S
C407        F412   1.367       .  S
C407        F413   1.373       .  S
C410        F414   1.384       .  S
C410        F415   1.383   1_455  S
C410        F416   1.384       .  S
C417        C418   1.421       .  A
C417        C422   1.401       .  A
C417        H424   1.067       .  S
C418        C979   1.458       .  A
C419        C426   1.526   1_556  S
C419        C420   1.425       .  A
C419        C978   1.458       .  A
C420        C981   1.400       .  A
C420        H425   1.085   1_556  S
C421        C422   1.410       .  A
C421        C980   1.400       .  A
C422        C423   1.529   1_455  S
C423        F427   1.385       .  S
C423        F428   1.384       .  S
C423        F429   1.383       .  S
C426        F430   1.382   1_554  S
C426        F431   1.363       .  S
C426        F432   1.386       .  S
C433        C434   1.427       .  A
C433        C438   1.408   1_645  A
C433        H440   1.071   1_545  S
C434        C435   1.440   1_655  A
C435        C442   1.535       .  S
C435        C436   1.404       .  A
C436        C437   1.425   1_545  A
C436        H441   1.076       .  S
C437        C438   1.445       .  A
C438        C439   1.541       .  S
C439        F443   1.387   1_455  S
C439        F444   1.378       .  S
C439        F445   1.375       .  S
C442        F446   1.372       .  S
C442        F447   1.379       .  S
C442        F448   1.387       .  S
C449        C450   1.424       .  A
C449        C454   1.403       .  A
C449        H456   1.082       .  S
C450        C451   1.466       .  A
C451        C458   1.545       .  S
C451        C452   1.412       .  A
C452        C453   1.392       .  A
C452        H457   1.086       .  S
C453        C454   1.399       .  A
C454        C455   1.513       .  S
C455        F459   1.385       .  S
C455        F460   1.379       .  S
C455        F461   1.382       .  S
C458        F462   1.387       .  S
C458        F463   1.383   1_655  S
C458        F464   1.373       .  S
C465        C466   1.420       .  A
C465        C470   1.388       .  A
C465        H472   1.055       .  S
C466        C467   1.449       .  A
C467        C474   1.520       .  S
C467        C468   1.410       .  A
C468        C469   1.396       .  A
C468        H473   1.084       .  S
C469        C470   1.410       .  A
C470        C471   1.529   1_545  S
C471        F475   1.386       .  S
C471        F476   1.383       .  S
C471        F477   1.381       .  S
C474        F478   1.382       .  S
C474        F479   1.365       .  S
C474        F480   1.386       .  S
C481        C482   1.425   1_455  A
C481        C486   1.383       .  A
C481        H488   1.080       .  S
C482        C483   1.457       .  A
C483        C490   1.536       .  S
C483        C484   1.414       .  A
C484        C485   1.396   1_655  A
C484        H489   1.084       .  S
C485        C486   1.387       .  A
C486        C487   1.504       .  S
C487        F491   1.382       .  S
C487        F492   1.378       .  S
C487        F493   1.382       .  S
C490        F494   1.377   1_545  S
C490        F495   1.373       .  S
C490        F496   1.386   1_545  S
C497        C498   1.423       .  A
C497        C502   1.409       .  A
C497        H504   1.065       .  S
C498        C499   1.443       .  A
C499        C506   1.526       .  S
C499        C500   1.413       .  A
C500        C501   1.414       .  A
C500        H505   1.075       .  S
C501        C502   1.433       .  A
C502        C503   1.534       .  S
C503        F507   1.380       .  S
C503        F508   1.366       .  S
C503        F509   1.386       .  S
C506        F510   1.382       .  S
C506        F511   1.367       .  S
C506        F512   1.386       .  S
C513        C514   1.385       .  A
C513        C518   1.408       .  A
C513        H520   1.083       .  S
C514        C515   1.392       .  A
C515        C522   1.520       .  S
C515        C516   1.394       .  A
C516        C517   1.433       .  A
C516        H521   1.079       .  S
C517        C518   1.463       .  A
C518        C519   1.539       .  S
C519        F523   1.386       .  S
C519        F524   1.379       .  S
C519        F525   1.374       .  S
C522        F526   1.383       .  S
C522        F527   1.384       .  S
C522        F528   1.384       .  S
C529        C530   1.420       .  A
C529        C534   1.395       .  A
C529        H536   1.079       .  S
C530        C531   1.459       .  A
C531        C538   1.535       .  S
C531        C532   1.399       .  A
C532        C533   1.383       .  A
C532        H537   1.087       .  S
C533        C534   1.407       .  A
C534        C535   1.518       .  S
C535        F539   1.384       .  S
C535        F540   1.384       .  S
C535        F541   1.383       .  S
C538        F542   1.363       .  S
C538        F543   1.388       .  S
C538        F544   1.378       .  S
C545        C546   1.428       .  A
C545        C550   1.403       .  A
C545        H552   1.080       .  S
C546        C547   1.433       .  A
C547        C554   1.506       .  S
C547        C548   1.383       .  A
C548        C549   1.392       .  A
C548        H553   1.082       .  S
C549        C550   1.403       .  A
C550        C551   1.516       .  S
C551        F555   1.384       .  S
C551        F556   1.384       .  S
C551        F557   1.380       .  S
C554        F558   1.389       .  S
C554        F559   1.363       .  S
C554        F560   1.371       .  S
C561       C1058   1.601       .  S
C561       C1077   1.594       .  S
C561       C1090   1.596       .  S
C561       C1106   1.556       .  S
C562        C994   1.616       .  S
C562       C1010   1.577       .  S
C562       C1026   1.593       .  S
C562       C1042   1.568       .  S
C563        C949   1.578       .  S
C563        C965   1.624       .  S
C563        C978   1.595       .  S
C564        C882   1.550       .  S
C564        C901   1.609       .  S
C564        C917   1.579       .  S
C564       C1061   1.587       .  S
C565        C818   1.636       .  S
C565        C834   1.621       .  S
C565        C850   1.625       .  S
C565        C866   1.619       .  S
C566        C770   1.606       .  S
C566        C786   1.568       .  S
C566        C802   1.602       .  S
C566        C933   1.617       .  S
C567        C722   1.648       .  S
C567        C738   1.626       .  S
C567        C754   1.626       .  S
C568        C674   1.603       .  S
C568        C693   1.578       .  S
C568        C709   1.573       .  S
C568        C997   1.602       .  S
O569        C590   1.269       .  A
O570        C579   1.274   1_556  A
O570       Ni593   1.940       .  S
O571        H594   0.967   1_455  S
O571       Ni587   1.897       .  S
C572        O589   1.278   1_565  A
C572        O581   1.274       .  A
C572        C706   1.450   1_565  S
O573       Ni592   1.900       .  S
O574        C576   1.268       .  A
O574       Ni592   1.907   1_655  S
Ni575       O578   1.913       .  S
Ni575       O580   1.918       .  S
C576        O586   1.287   1_565  A
C576        C869   1.541       .  S
O577        C583   1.279   1_565  A
O577       Ni593   1.913       .  S
O578        C583   1.279       .  A
C579        C981   1.491   1_554  S
O580        C582   1.267       .  A
O581       Ni592   1.893       .  S
C582        O588   1.284       .  A
C582        C757   1.517       .  S
C583       C1045   1.458       .  S
H584        O585   0.966       .  S
O585       Ni587   1.909   1_565  S
O585       Ni592   1.890       .  S
O586       Ni587   1.994   1_655  S
Ni587       O591   1.926   1_455  S
Ni587       O589   1.916       .  S
O588       Ni593   1.980   1_545  S
C590        O591   1.277   1_455  A
C590        C805   1.491   1_455  S
O595        C616   1.262       .  A
O595       Ni601   1.884   1_565  S
O596        C605   1.264       .  A
O596       Ni619   1.913       .  S
O597        H620   0.966       .  S
O597       Ni601   1.880       .  S
O597       Ni619   1.875       .  S
O597       Ni613   1.897   1_545  S
C598        O615   1.277       .  A
C598        O607   1.275       .  A
C598       C1074   1.448       .  S
O599        C605   1.257       .  A
O599       Ni618   1.896   1_545  S
O600        C602   1.263       .  A
O600       Ni618   1.884       .  S
Ni601       O604   1.886       .  S
Ni601       O606   1.922       .  S
C602        O612   1.280       .  A
C602        C837   1.518       .  S
O603        C609   1.282       .  A
O603       Ni619   1.899       .  S
O604        C609   1.273       .  A
C605       C1029   1.477       .  S
O606        C608   1.265       .  A
O607       Ni618   1.894       .  S
C608        O614   1.276       .  A
C608        C741   1.519       .  S
C609        C885   1.454       .  S
H610        O611   0.966       .  S
O611       Ni619   1.912   1_565  S
O611       Ni613   1.904       .  S
O611       Ni618   1.883       .  S
O612       Ni613   1.978       .  S
Ni613       O617   1.912       .  S
Ni613       O615   1.913       .  S
O614       Ni619   1.959       .  S
C616        O617   1.274       .  A
C616        C677   1.484       .  S
O621        C642   1.265       .  A
O621       Ni627   1.897       .  S
O622        C631   1.273       .  A
O622       Ni645   1.915       .  S
O623        H646   0.967       .  S
O623       Ni627   1.878       .  S
C624        O641   1.280       .  A
C624        O633   1.279       .  A
C624        C789   1.492       .  S
O625        C631   1.264       .  A
O625       Ni644   1.895       .  S
O626        C628   1.268       .  A
O626       Ni644   1.918       .  S
Ni627       O630   1.918       .  S
Ni627       O632   1.906       .  S
C628        O638   1.280       .  A
C628        C853   1.526       .  S
O629        C635   1.287       .  A
O629       Ni645   1.926       .  S
C631        C914   1.465       .  S
O632        C634   1.264   1_556  A
O633       Ni644   1.916       .  S
C634        C725   1.523       .  S
H636        O637   0.966       .  S
O637       Ni645   1.938       .  S
O637       Ni639   1.882       .  S
O637       Ni644   1.880       .  S
O638       Ni639   1.976       .  S
Ni639       O641   1.917       .  S
O640       Ni645   1.992       .  S
C642        O643   1.259       .  A
C642       C1109   1.458       .  S
O647        C668   1.271       .  A
O647       Ni653   1.902       .  S
O648        C657   1.266       .  A
O648       Ni671   1.896       .  S
O649        H672   0.967       .  S
O649       Ni653   1.902   1_455  S
O649       Ni671   1.902       .  S
O649       Ni665   1.912   1_455  S
C650        O667   1.285       .  A
C650        O659   1.277   1_655  A
C650       C1013   1.472       .  S
O651        C657   1.263       .  A
O651       Ni670   1.907       .  S
O652        C654   1.265       .  A
O652       Ni670   1.903       .  S
Ni653       O656   1.919   1_655  S
Ni653       O658   1.915       .  S
C654        O664   1.272   1_455  A
C654        C773   1.492   1_455  S
O655        C661   1.264       .  A
O655       Ni671   1.901       .  S
O656        C661   1.265       .  A
C657        C898   1.459       .  S
O658        C660   1.269   1_655  A
O659       Ni670   1.904       .  S
C660        O666   1.286       .  A
C660        C962   1.492       .  S
C661        C690   1.458       .  S
H662        O663   0.966       .  S
O663       Ni671   1.892       .  S
O663       Ni665   1.889   1_455  S
O663       Ni670   1.887       .  S
O664       Ni665   1.947       .  S
Ni665       O669   1.898       .  S
Ni665       O667   1.948       .  S
O666       Ni671   1.978       .  S
C668        O669   1.272       .  A
C668       C1093   1.460       .  S
C673        C674   1.422       .  A
C673        C678   1.393   1_565  A
C673        H680   1.066   1_565  S
C674        C675   1.457       .  A
C675        C682   1.535       .  S
C675        C676   1.408       .  A
C676        C677   1.393       .  A
C676        H681   1.082       .  S
C677        C678   1.416   1_565  A
C678        C679   1.528       .  S
C679        F683   1.386       .  S
C679        F684   1.378       .  S
C679        F685   1.382       .  S
C682        F686   1.386       .  S
C682        F687   1.370       .  S
C682        F688   1.374       .  S
C689        C690   1.392       .  A
C689        C694   1.409       .  A
C689        H696   1.086       .  S
C690        C691   1.391       .  A
C691        C698   1.514       .  S
C691        C692   1.393       .  A
C692        C693   1.430       .  A
C692        H697   1.078       .  S
C693        C694   1.457       .  A
C694        C695   1.534       .  S
C695        F699   1.369       .  S
C695        F700   1.380   1_455  S
C695        F701   1.387       .  S
C698        F702   1.383       .  S
C698        F703   1.375       .  S
C698        F704   1.385       .  S
C705        C706   1.386   1_665  A
C705        C710   1.402       .  A
C705        H712   1.084       .  S
C706        C707   1.400       .  A
C707        C714   1.521       .  S
C707        C708   1.398       .  A
C708        C709   1.426   1_545  A
C708        H713   1.077       .  S
C709        C710   1.445   1_455  A
C710        C711   1.518       .  S
C711        F715   1.375       .  S
C711        F716   1.368       .  S
C711        F717   1.385       .  S
C714        F718   1.383       .  S
C714        F719   1.383       .  S
C714        F720   1.384       .  S
C721        C722   1.438       .  A
C721        C726   1.430   1_556  A
C721        H728   1.073       .  S
C722        C723   1.458       .  A
C723        C724   1.425       .  A
C724        C725   1.395   1_556  A
C725        C726   1.415       .  A
C726        C727   1.517       .  S
C727        F731   1.385       .  S
C727        F732   1.382   1_554  S
C727        F733   1.383       .  S
C730        F735   1.384       .  S
C730        F736   1.384       .  S
C737        C738   1.430       .  A
C737        C742   1.419       .  A
C737        H744   1.080       .  S
C738        C739   1.470       .  A
C739        C746   1.542       .  S
C739        C740   1.427       .  A
C740        C741   1.397       .  A
C740        H745   1.085       .  S
C741        C742   1.417       .  A
C742        C743   1.521       .  S
C743        F747   1.385       .  S
C743        F748   1.383       .  S
C743        F749   1.384       .  S
C746        F750   1.383   1_545  S
C746        F751   1.367       .  S
C746        F752   1.386       .  S
C753        C754   1.427       .  A
C753        C758   1.410       .  A
C753        H760   1.070       .  S
C755        C762   1.531       .  S
C755        C756   1.437       .  A
C756        H761   1.082       .  S
C757        C758   1.407       .  A
C758        C759   1.512       .  S
C759        F763   1.385       .  S
C759        F764   1.381       .  S
C759        F765   1.384   1_545  S
C762        F766   1.376       .  S
C762        F767   1.380       .  S
C762        F768   1.385       .  S
C769        C770   1.428       .  A
C769        C774   1.419       .  A
C769        H776   1.078       .  S
C770        C771   1.448       .  A
C771        C778   1.522       .  S
C771        C772   1.403       .  A
C772        C773   1.389       .  A
C772        H777   1.080       .  S
C773        C774   1.411       .  A
C774        C775   1.516   1_655  S
C775        F779   1.385       .  S
C775        F780   1.384       .  S
C775        F781   1.382   1_455  S
C778        F782   1.378       .  S
C778        F783   1.368       .  S
C778        F784   1.386       .  S
C785        C786   1.428       .  A
C785        C790   1.401       .  A
C785        H792   1.072       .  S
C786        C787   1.449       .  A
C787        C794   1.534       .  S
C787        C788   1.408       .  A
C788        C789   1.407       .  A
C788        H793   1.084       .  S
C789        C790   1.413       .  A
C790        C791   1.527       .  S
C791        F795   1.385       .  S
C791        F796   1.383       .  S
C791        F797   1.384       .  S
C794        F798   1.381       .  S
C794        F799   1.376       .  S
C801        C802   1.425   1_455  A
C801        C806   1.407       .  A
C801        H808   1.062       .  S
C802        C803   1.473       .  A
C803        C810   1.544       .  S
C803        C804   1.418       .  A
C804        C805   1.390       .  A
C804        H809   1.087       .  S
C805        C806   1.407   1_655  A
C806        C807   1.525       .  S
C807        F811   1.385       .  S
C807        F812   1.383       .  S
C807        F813   1.383       .  S
C810        F814   1.382       .  S
C810        F815   1.365       .  S
C810        F816   1.387       .  S
C817        C818   1.428       .  A
C817        H824   1.069       .  S
C818        C819   1.451   1_565  A
C819        C826   1.523       .  S
C819        C820   1.426       .  A
C820        C821   1.416       .  A
C820        H825   1.075       .  S
C822        C823   1.536   1_554  S
C823        F827   1.386       .  S
C823        F828   1.372       .  S
C823        F829   1.380   1_556  S
C826        F830   1.384       .  S
C826        F831   1.360       .  S
C826        F832   1.384       .  S
C833        C834   1.434       .  A
C833        C838   1.432       .  A
C833        H840   1.077   1_565  S
C834        C835   1.444       .  A
C835        C842   1.538       .  S
C835        C836   1.402       .  A
C836        C837   1.407       .  A
C836        H841   1.085       .  S
C837        C838   1.421       .  A
C838        C839   1.515   1_565  S
C839        F843   1.385       .  S
C839        F844   1.383       .  S
C839        F845   1.383   1_545  S
C842        F846   1.370       .  S
C842        F847   1.380       .  S
C842        F848   1.387   1_565  S
C849        C850   1.432       .  A
C849        C854   1.431       .  A
C849        H856   1.081       .  S
C850        C851   1.450       .  A
C851        C858   1.516       .  S
C851        C852   1.419       .  A
C852        C853   1.400       .  A
C852        H857   1.083       .  S
C853        C854   1.419       .  A
C854        C855   1.514       .  S
C855        F861   1.384       .  S
C858        F862   1.378       .  S
C858        F863   1.375       .  S
C858        F864   1.387       .  S
C865        C866   1.430       .  A
C865        C870   1.434       .  A
C865        H872   1.074   1_565  S
C866        C867   1.459       .  A
C867        C874   1.541       .  S
C867        C868   1.422       .  A
C868        C869   1.410       .  A
C868        H873   1.081       .  S
C869        C870   1.421       .  A
C870        C871   1.517   1_565  S
C871        F875   1.385       .  S
C871        F876   1.384       .  S
C871        F877   1.383       .  S
C874        F878   1.379       .  S
C874        F879   1.374       .  S
C874        F880   1.386       .  S
C881        C882   1.420       .  A
C881        C886   1.393       .  A
C881        H888   1.080       .  S
C882        C883   1.446       .  A
C883        C890   1.506       .  S
C883        C884   1.386       .  A
C884        C885   1.379       .  A
C884        H889   1.085       .  S
C885        C886   1.412       .  A
C886        C887   1.521       .  S
C887        F891   1.385       .  S
C887        F892   1.383       .  S
C887        F893   1.383       .  S
C890        F894   1.389       .  S
C890        F895   1.362       .  S
C890        F896   1.373       .  S
C897        C898   1.389       .  A
C897        C902   1.402       .  A
C897        H904   1.086       .  S
C898        C899   1.405       .  A
C899        C906   1.524       .  S
C899        C900   1.392       .  A
C900        C901   1.425       .  A
C900        H905   1.075       .  S
C901        C902   1.449       .  A
C902        C903   1.524       .  S
C903        F907   1.387       .  S
C903        F908   1.374       .  S
C903        F909   1.365       .  S
C906        F910   1.384       .  S
C906        F911   1.382       .  S
C906        F912   1.385       .  S
C913        C914   1.394       .  A
C913        C918   1.407       .  A
C913        H920   1.086       .  S
C914        C915   1.405       .  A
C915        C922   1.521       .  S
C915        C916   1.396       .  A
C916        C917   1.427       .  A
C916        H921   1.082       .  S
C917        C918   1.452       .  A
C918        C919   1.535       .  S
C919        F923   1.384       .  S
C919        F924   1.368       .  S
C919        F925   1.386       .  S
C922        F926   1.384       .  S
C922        F927   1.382       .  S
C922        F928   1.385       .  S
C929        H936   1.079       .  S
C930        C931   1.463       .  A
C931        C938   1.529       .  S
C931        C932   1.424       .  A
C932        C933   1.413   1_455  A
C932        H937   1.077       .  S
C933        C934   1.425       .  A
C935        F939   1.381       .  S
C935        F941   1.381       .  S
C938        F942   1.372       .  S
C938        F943   1.386       .  S
C938        F944   1.373       .  S
C945        C950   1.405       .  A
C945        H952   1.084       .  S
C946        C947   1.410       .  A
C947        C954   1.521       .  S
C947        C948   1.405       .  A
C948        C949   1.417       .  A
C948        H953   1.062       .  S
C950        C951   1.528       .  S
C951        F955   1.385       .  S
C951        F956   1.368       .  S
C951        F957   1.382       .  S
C954        F958   1.383       .  S
C954        F959   1.383       .  S
C954        F960   1.384       .  S
C961        C962   1.382       .  A
C961        C966   1.413       .  A
C961        H968   1.081       .  S
C962        C963   1.406       .  A
C963        C970   1.517       .  S
C963        C964   1.423       .  A
C964        C965   1.429       .  A
C964        H969   1.067       .  S
C965        C966   1.474       .  A
C966        C967   1.546       .  S
C967        F971   1.378       .  S
C967        F972   1.367       .  S
C967        F973   1.373       .  S
C970        F974   1.384       .  S
C970        F975   1.383   1_455  S
C970        F976   1.384       .  S
C977        C978   1.421       .  A
C977        C982   1.401       .  A
C977        H984   1.067       .  S
C979        C986   1.526       .  S
C979        C980   1.425       .  A
C980        H985   1.085       .  S
C981        C982   1.409       .  A
C982        C983   1.529   1_455  S
C983        F987   1.385       .  S
C983        F988   1.384       .  S
C983        F989   1.383   1_556  S
C986        F990   1.382       .  S
C986        F991   1.364       .  S
C986        F992   1.386       .  S
C993        C994   1.427       .  A
C993        C998   1.407   1_645  A
C993       H1000   1.071   1_545  S
C994        C995   1.440   1_655  A
C995       C1002   1.535       .  S
C995        C996   1.404       .  A
C996        C997   1.425   1_545  A
C996       H1001   1.076       .  S
C997        C998   1.445       .  A
C998        C999   1.541       .  S
C999       F1003   1.387   1_455  S
C999       F1004   1.378       .  S
C999       F1005   1.375       .  S
C1002      F1006   1.372       .  S
C1002      F1007   1.379       .  S
C1002      F1008   1.387       .  S
C1009      C1010   1.424       .  A
C1009      C1014   1.403       .  A
C1009      H1016   1.082       .  S
C1010      C1011   1.466       .  A
C1011      C1018   1.545       .  S
C1011      C1012   1.412       .  A
C1012      C1013   1.392       .  A
C1012      H1017   1.086       .  S
C1013      C1014   1.399       .  A
C1014      C1015   1.513       .  S
C1015      F1019   1.385       .  S
C1015      F1020   1.379       .  S
C1015      F1021   1.382       .  S
C1018      F1022   1.387       .  S
C1018      F1023   1.383   1_655  S
C1018      F1024   1.373       .  S
C1025      C1026   1.420       .  A
C1025      C1030   1.388       .  A
C1025      H1032   1.055       .  S
C1026      C1027   1.449       .  A
C1027      C1034   1.519       .  S
C1027      C1028   1.410       .  A
C1028      C1029   1.396       .  A
C1028      H1033   1.084       .  S
C1029      C1030   1.409       .  A
C1030      C1031   1.529   1_545  S
C1031      F1035   1.386       .  S
C1031      F1036   1.383       .  S
C1031      F1037   1.382       .  S
C1034      F1038   1.382       .  S
C1034      F1039   1.365       .  S
C1034      F1040   1.386       .  S
C1041      C1042   1.425   1_455  A
C1041      C1046   1.383       .  A
C1041      H1048   1.079       .  S
C1042      C1043   1.457       .  A
C1043      C1050   1.536       .  S
C1043      C1044   1.414       .  A
C1044      C1045   1.396   1_655  A
C1044      H1049   1.084       .  S
C1045      C1046   1.387       .  A
C1046      C1047   1.504       .  S
C1047      F1051   1.382       .  S
C1047      F1052   1.378       .  S
C1047      F1053   1.382       .  S
C1050      F1054   1.376   1_545  S
C1050      F1055   1.373       .  S
C1050      F1056   1.386   1_545  S
C1057      C1058   1.422       .  A
C1057      C1062   1.409       .  A
C1057      H1064   1.065       .  S
C1058      C1059   1.443       .  A
C1059      C1066   1.526       .  S
C1059      C1060   1.414       .  A
C1060      C1061   1.414       .  A
C1060      H1065   1.075       .  S
C1061      C1062   1.433       .  A
C1062      C1063   1.533       .  S
C1063      F1067   1.380       .  S
C1063      F1068   1.365       .  S
C1063      F1069   1.386       .  S
C1066      F1070   1.382       .  S
C1066      F1071   1.367       .  S
C1066      F1072   1.386       .  S
C1073      C1074   1.385       .  A
C1073      C1078   1.408       .  A
C1073      H1080   1.083       .  S
C1074      C1075   1.391       .  A
C1075      C1082   1.520       .  S
C1075      C1076   1.393       .  A
C1076      C1077   1.433       .  A
C1076      H1081   1.078       .  S
C1077      C1078   1.462       .  A
C1078      C1079   1.539       .  S
C1079      F1083   1.386       .  S
C1079      F1084   1.379       .  S
C1079      F1085   1.374       .  S
C1082      F1086   1.383       .  S
C1082      F1087   1.384       .  S
C1082      F1088   1.384       .  S
C1089      C1090   1.420       .  A
C1089      C1094   1.395       .  A
C1089      H1096   1.079       .  S
C1090      C1091   1.459       .  A
C1091      C1098   1.535       .  S
C1091      C1092   1.399       .  A
C1092      C1093   1.383       .  A
C1092      H1097   1.087       .  S
C1093      C1094   1.407       .  A
C1094      C1095   1.518       .  S
C1095      F1099   1.384       .  S
C1095      F1100   1.384       .  S
C1095      F1101   1.383       .  S
C1098      F1102   1.363       .  S
C1098      F1103   1.388       .  S
C1098      F1104   1.378       .  S
C1105      C1106   1.428       .  A
C1105      C1110   1.403       .  A
C1105      H1112   1.080       .  S
C1106      C1107   1.432       .  A
C1107      C1114   1.505       .  S
C1107      C1108   1.383       .  A
C1108      C1109   1.391       .  A
C1108      H1113   1.082       .  S
C1109      C1110   1.403       .  A
C1110      C1111   1.516       .  S
C1111      F1115   1.384       .  S
C1111      F1116   1.384       .  S
C1111      F1117   1.380       .  S
C1114      F1118   1.389       .  S
C1114      F1119   1.362       .  S
C1114      F1120   1.371       .  S
