geometry optimzed in LAMMPS
_audit_creation_date              2020-11-30 
_audit_creation_method            'lammps2cif' 
_symmetry_space_group_name_H-M    'P1' 
_symmetry_Int_Tables_number       1 
_symmetry_cell_setting            triclinic 
loop_ 
_symmetry_equiv_pos_as_xyz 
  x,y,z 
_cell_length_a                    31.25944617 
_cell_length_b                    33.05769238955975 
_cell_length_c                    44.7033280732069 
_cell_angle_alpha                 89.47084842060747 
_cell_angle_beta                  90.09043344909095 
_cell_angle_gamma                 89.86258877584056 
loop_ 
_atom_site_label 
_atom_site_type_symbol 
_atom_site_fract_x 
_atom_site_fract_y 
_atom_site_fract_z 
_atom_site_charge 
Zn1        Zn  0.19544392  0.25773902  0.59826893     1.49700
Zn2        Zn  0.24542413  0.19095879  0.64640446     1.49400
Zn3        Zn  0.29901704  0.24716426  0.60462547     1.49100
Zn4        Zn  0.23286687  0.28612736  0.65640114     1.49500
O5          O  0.24346785  0.24491895  0.62624981    -1.83200
O6          O  0.16373945  0.20575755  0.59612167    -0.73900
O7          O  0.30278354  0.15769095  0.64099892    -0.73700
O8          O  0.28791386  0.25390373  0.55914814    -0.73200
O9          O  0.19881544  0.16060138  0.62493172    -0.73900
O10         O  0.21759545  0.26423300  0.55562502    -0.73500
O11         O  0.34233358  0.19851979  0.61313923    -0.74100
O12         O  0.28320897  0.31947985  0.65537627    -0.73500
O13         O  0.23475654  0.19599064  0.69251881    -0.74200
O14         O  0.32653138  0.29767129  0.61922678    -0.73600
O15         O  0.22892869  0.26233358  0.69746087    -0.74100
O16         O  0.18382980  0.32733035  0.65050414    -0.74000
O17         O  0.15481290  0.30842764  0.60811090    -0.73800
C18         C  0.16982004  0.16970245  0.60574259     0.78000
C19         C  0.33824765  0.16513968  0.62771754     0.78500
C20         C  0.25426446  0.26065285  0.54344514     0.77500
C21         C  0.31680459  0.32260948  0.63972849     0.77800
C22         C  0.23018535  0.22715279  0.70911564     0.79000
C23         C  0.15609123  0.33324749  0.63002575     0.78000
C24         C  0.03744741  0.47758708  0.63870879     0.30900
C25         C  0.48040915  0.04100800  0.63684510     0.30900
C26         C  0.49039619  0.47410232  0.65386528    -0.05300
C27         C  0.04750560  0.51201475  0.66164202    -0.06100
C28         C  0.02526970  0.00149136  0.61860419    -0.06000
C29         C  0.46117781  0.50618003  0.65357212    -0.05300
C30         C  0.51831770  0.04543990  0.65917945    -0.06100
C31         C  0.99629783  0.03409014  0.61944105    -0.06000
C32         C  0.42246441  0.49072217  0.66215010    -0.31400
N33         N  0.42760747  0.45065418  0.66724589     0.15100
C34         C  0.46925690  0.44067012  0.66361109    -0.31400
H35         H  0.48170282  0.41010538  0.66410842     0.17100
C36         C  0.51410133  0.05653777  0.68907385    -0.30300
N37         N  0.04294172  0.03901242  0.71682813     0.13900
C38         C  0.05834383  0.50584755  0.69161764    -0.30300
C39         C  0.01151692  0.06228356  0.59941413    -0.30600
N40         N  0.04850439  0.04940910  0.58678741     0.14400
H41         H  0.00147977  0.09347185  0.60019024     0.17000
C42         C  0.05519701  0.01123279  0.59725469    -0.30600
H43         H  0.08437908  0.99416205  0.59450403     0.17000
H44         H  0.07531116  0.47976770  0.70027849     0.17000
H45         H  0.39187291  0.50606926  0.66139010     0.17100
H46         H  0.48823274  0.07474998  0.69778044     0.17000
Zn47       Zn  0.06534809  0.98782179  0.95352715     1.49700
Zn48       Zn  0.01981048  0.05884527  0.90787346     1.49400
Zn49       Zn  0.02866023  0.46518947  0.89217284     1.49100
Zn50       Zn  0.45539845  0.00290478  0.93791292     1.49500
O51         O  0.01824186  0.00412371  0.92638027    -1.83200
O52         O  0.10533877  0.03422882  0.95164618    -0.73900
O53         O  0.03362369  0.05584541  0.86292321    -0.73700
O54         O  0.07987666  0.42649353  0.89752321    -0.73200
O55         O  0.06821858  0.08508301  0.92981855    -0.73900
O56         O  0.09317086  0.43276276  0.94558743    -0.73500
O57         O  0.03164756  0.48879729  0.85084038    -0.74100
O58         O  0.43989982  0.46440765  0.92371271    -0.73500
O59         O  0.46233562  0.09394155  0.90398236    -0.74200
O60         O  0.48483888  0.44073979  0.88881217    -0.73600
O61         O  0.41817648  0.05541506  0.93001697    -0.74100
O62         O  0.45886167  0.99253242  0.98425947    -0.74000
O63         O  0.04406759  0.99044599  0.99620445    -0.73800
C64         C  0.10026824  0.07141484  0.94461453     0.78000
C65         C  0.03712464  0.02545942  0.84565814     0.78500
C66         C  0.09997316  0.41453933  0.92079868     0.77500
C67         C  0.44973446  0.43984482  0.90295051     0.77800
C68         C  0.42580469  0.08871555  0.91619563     0.79000
C69         C  0.00826942  0.99717099  0.00890522     0.78000
C70         C  0.28955032  0.21704099  0.90648363     0.30900
C71         C  0.22405040  0.27425007  0.90763820     0.30900
C72         C  0.30103458  0.25976363  0.89696376    -0.05300
C73         C  0.25142223  0.20933312  0.88480200    -0.06100
C74         C  0.26817950  0.22376867  0.93702275    -0.06000
C75         C  0.26894350  0.28875752  0.89908240    -0.05300
C76         C  0.21736392  0.23828010  0.88550602    -0.06100
C77         C  0.23279748  0.25048848  0.93705792    -0.06000
C78         C  0.28741851  0.32513941  0.89280383    -0.31400
N79         N  0.32837408  0.31879277  0.88377700     0.15100
C80         C  0.33642869  0.27841215  0.88589714    -0.31400
H81         H  0.36608353  0.26329190  0.88064663     0.17100
C82         C  0.19973982  0.23819797  0.85704107    -0.30300
N83         N  0.22217817  0.21336650  0.83877863     0.13900
C84         C  0.25385578  0.19646508  0.85535176    -0.30300
C85         C  0.20232701  0.23041079  0.95398761    -0.30600
N86         N  0.21830256  0.19540051  0.96547330     0.14400
H87         H  0.16842251  0.23609459  0.95139069     0.17000
C88         C  0.25971790  0.19347407  0.95720907    -0.30600
H89         H  0.27952586  0.16678574  0.95972941     0.17000
H90         H  0.28124630  0.18139798  0.84569163     0.17000
H91         H  0.27224636  0.35402856  0.89631837     0.17100
H92         H  0.17440001  0.25767656  0.84931853     0.17000
Zn93       Zn  0.51525008  0.44126628  0.14432905     1.49700
Zn94       Zn  0.42113618  0.98750213  0.08949421     1.49400
Zn95       Zn  0.46359526  0.05546444  0.13870147     1.49100
Zn96       Zn  0.06229383  0.00594772  0.09907594     1.49500
O97         O  0.46713903  0.00207358  0.11893857    -1.83200
O98         O  0.45837556  0.40641939  0.14449326    -0.73900
O99         O  0.38880683  0.03918366  0.08337795    -0.73700
O100        O  0.44937347  0.04978219  0.18374122    -0.73200
O101        O  0.42261623  0.43202877  0.10613566    -0.73900
O102        O  0.52993592  0.45222176  0.18899141    -0.73500
O103        O  0.41899182  0.08392603  0.11437484    -0.74100
O104        O  0.10231123  0.05513185  0.11220668    -0.73500
O105        O  0.44682407  0.97875863  0.04672186    -0.74200
O106        O  0.06427205  0.08002653  0.14935261    -0.73600
O107        O  0.04145617  0.01049937  0.05566733    -0.74100
O108        O  0.05756094  0.45935716  0.11778585    -0.74000
O109        O  0.01648107  0.42850200  0.15183310    -0.73800
C110        C  0.42565223  0.40550319  0.12718233     0.78000
C111        C  0.39331987  0.07503027  0.09317878     0.78500
C112        C  0.44994568  0.01892868  0.20124792     0.77500
C113        C  0.09734669  0.08184268  0.13260180     0.77800
C114        C  0.48354886  0.98713377  0.03547106     0.79000
C115        C  0.05153842  0.43182024  0.13746931     0.78000
C116        C  0.22895757  0.21344601  0.15028905     0.30900
C117        C  0.29211130  0.27370067  0.14734887     0.30900
C118        C  0.21511951  0.25653628  0.15845299    -0.05300
C119        C  0.26766041  0.20816577  0.17195744    -0.06100
C120        C  0.24974617  0.22097426  0.11987405    -0.06000
C121        C  0.24672580  0.28660575  0.15680532    -0.05300
C122        C  0.30098410  0.23768162  0.16970597    -0.06100
C123        C  0.28191478  0.25029481  0.11819457    -0.06000
C124        C  0.22632110  0.32299302  0.15969761    -0.31400
N125        N  0.18366379  0.31637963  0.16306639     0.15100
C126        C  0.17685846  0.27584979  0.16282101    -0.31400
H127        H  0.14593406  0.26163603  0.16291949     0.17100
C128        C  0.31987857  0.23846298  0.19781545    -0.30300
N129        N  0.29802373  0.21489857  0.21756199     0.13900
C130        C  0.26604859  0.19701761  0.20200462    -0.30300
C131        C  0.30794063  0.23788570  0.09506026    -0.30600
N132        N  0.29192407  0.20407147  0.08185440     0.14400
H133        H  0.33979662  0.24944370  0.09160873     0.17000
C134        C  0.25588666  0.19434767  0.09705688    -0.30600
H135        H  0.23956004  0.16572978  0.09583753     0.17000
H136        H  0.23904401  0.18207012  0.21235535     0.17000
H137        H  0.24141611  0.35227153  0.15747232     0.17100
H138        H  0.34609195  0.25761827  0.20413589     0.17000
C139        C  0.47936379  0.47843224  0.40612878     0.30900
C140        C  0.05038667  0.03264118  0.40761050     0.30900
C141        C  0.98996194  0.46478882  0.39952216    -0.05300
C142        C  0.51519356  0.47416056  0.38215918    -0.06100
C143        C  0.45014907  0.00319326  0.43239119    -0.06000
C144        C  0.02108079  0.49555356  0.39951400    -0.05300
C145        C  0.05583760  0.99916550  0.38335225    -0.06100
C146        C  0.48171509  0.03278176  0.43194250    -0.06000
C147        C  0.05969777  0.47713059  0.39439818    -0.31400
N148        N  0.05281513  0.43683264  0.39169438     0.15100
C149        C  0.01051951  0.42910271  0.39422345    -0.31400
H150        H  0.99646311  0.39925066  0.39430933     0.17100
C151        C  0.06472596  0.00503597  0.35308906    -0.30300
N152        N  0.44868363  0.03317313  0.33110139     0.13900
C153        C  0.50915530  0.46255796  0.35263499    -0.30300
C154        C  0.47198587  0.05966004  0.45390467    -0.30600
N155        N  0.43588301  0.04786430  0.46840354     0.14400
H156        H  0.48642790  0.08920149  0.45516343     0.17000
C157        C  0.42256746  0.01313420  0.45511835    -0.30600
H158        H  0.39190851  0.99882907  0.45851117     0.17000
H159        H  0.48337275  0.44366988  0.34468121     0.17000
H160        H  0.09083165  0.49131240  0.39481567     0.17100
H161        H  0.08048091  0.03113307  0.34344603     0.17000
Zn162      Zn  0.27418277  0.29597580  0.39725707     1.49700
Zn163      Zn  0.31584130  0.26536242  0.45570033     1.49400
Zn164      Zn  0.21380993  0.24681394  0.44908054     1.49100
Zn165      Zn  0.27162473  0.19984802  0.40737629     1.49500
O166        O  0.26879960  0.25263101  0.42719255    -1.83200
O167        O  0.32379753  0.33797280  0.40345547    -0.73900
O168        O  0.29275219  0.27222856  0.49811621    -0.73700
O169        O  0.17953779  0.29456665  0.43515562    -0.73200
O170        O  0.35737521  0.31429197  0.44356038    -0.73900
O171        O  0.21804725  0.32475761  0.39909123    -0.73500
O172        O  0.22517124  0.25120771  0.49450582    -0.74100
O173        O  0.21618299  0.16540035  0.40572757    -0.73500
O174        O  0.34641884  0.21306188  0.46193714    -0.74200
O175        O  0.17616398  0.19450831  0.43969539    -0.73600
O176        O  0.31075828  0.16850852  0.43389374    -0.74100
O177        O  0.29104962  0.20555773  0.36394670    -0.74000
O178        O  0.28233297  0.27153558  0.35591201    -0.73800
C179        C  0.35454482  0.34056433  0.42226425     0.78000
C180        C  0.25736619  0.26208024  0.51026658     0.75300
C181        C  0.18430656  0.32184037  0.41504279     0.77500
C182        C  0.18160135  0.16593730  0.42081481     0.77800
C183        C  0.33739086  0.17689322  0.45454395     0.79000
C184        C  0.29018179  0.23606912  0.34617823     0.78000
C185        C  0.12187345  0.06943543  0.39310181    -0.11400
C186        C  0.08389463  0.06845932  0.41026575     0.05600
C187        C  0.07934622  0.10031082  0.43154283    -0.06700
C188        C  0.11060091  0.13136105  0.43419090    -0.07400
C189        C  0.14786939  0.13262204  0.41646524    -0.02000
C190        C  0.15261313  0.10088390  0.39540310     0.04900
N191        N  0.18859364  0.09989151  0.37575482     0.67400
H192        H  0.12907640  0.04503400  0.37809053     0.16300
H193        H  0.10580402  0.15444785  0.45090145     0.16000
N194        N  0.04416132  0.10092014  0.45198559     0.75100
O195        O  0.22025122  0.07763110  0.38205112    -0.38400
O196        O  0.18559046  0.11553685  0.34997600    -0.38300
O197        O  0.61384009  0.01008222  0.44430460    -0.39000
O198        O  0.01710747  0.12920849  0.45005622    -0.39100
C199        C  0.14517284  0.36760012  0.38055693    -0.11400
C200        C  0.14944429  0.35072622  0.40941089     0.05600
C201        C  0.12031378  0.36181735  0.43203557    -0.06700
C202        C  0.08843431  0.39007055  0.42558638    -0.07400
C203        C  0.08478038  0.40701990  0.39692131    -0.02000
C204        C  0.11278871  0.39543957  0.37419591     0.04900
N205        N  0.10775279  0.41087557  0.34447798     0.67400
H206        H  0.16665731  0.35875649  0.36275740     0.16300
H207        H  0.06662254  0.39937029  0.44306056     0.16000
N208        N  0.12351002  0.34591114  0.46181088     0.75100
O209        O  0.13094862  0.43967618  0.33548174    -0.38400
O210        O  0.08525092  0.39170618  0.32595085    -0.38300
O211        O  0.14202425  0.36629570  0.48171646    -0.39000
O212        O  0.10089117  0.31596652  0.46939337    -0.39100
C213        C  0.36375640  0.07163133  0.48033100    -0.11400
C214        C  0.40819066  0.07608760  0.48356628     0.05600
C215        C  0.42364216  0.11511198  0.49047067    -0.06700
C216        C  0.39937725  0.14876827  0.48203900    -0.07400
C217        C  0.35834311  0.14341319  0.47040539    -0.02000
C218        C  0.33864016  0.10526447  0.47337842     0.04900
N219        N  0.29372529  0.10013575  0.46875818     0.67400
H220        H  0.34910348  0.04210518  0.47938304     0.16300
H221        H  0.41331730  0.17869295  0.48320016     0.16000
N222        N  0.46522043  0.12080254  0.50306454     0.75100
O223        O  0.28050292  0.08325092  0.44530615    -0.38400
O224        O  0.26861280  0.10419464  0.49060794    -0.38300
O225        O  0.47545842  0.10201625  0.52671436    -0.39000
O226        O  0.48906633  0.14866644  0.49323212    -0.39100
C227        C  0.45387430  0.40386004  0.39863307    -0.11400
C228        C  0.44544720  0.44302804  0.40998312     0.05600
C229        C  0.40768639  0.44644454  0.42794631    -0.06700
C230        C  0.37865398  0.41340050  0.43110996    -0.07400
C231        C  0.38695917  0.37496344  0.41902176    -0.02000
C232        C  0.42582215  0.37052215  0.40321602     0.04900
N233        N  0.43814352  0.33173561  0.39236631     0.67400
H234        H  0.48357144  0.39816750  0.38704225     0.16300
H235        H  0.34980893  0.41750498  0.44414917     0.16000
N236        N  0.39879127  0.48251958  0.44439320     0.75100
O237        O  0.43104454  0.32281643  0.36544012    -0.38400
O238        O  0.46254101  0.30956649  0.40798740    -0.38300
O239        O  0.95231258  0.42440434  0.47277199    -0.39000
O240        O  0.42339997  0.49263416  0.46542076    -0.39100
C241        C  0.28743611  0.19205761  0.30065986    -0.11400
C242        C  0.29647854  0.22994018  0.31333208     0.05600
C243        C  0.30883400  0.26183117  0.29396810    -0.06700
C244        C  0.31050593  0.25577691  0.26297468    -0.07400
C245        C  0.30015916  0.21837455  0.25003030    -0.02000
C246        C  0.28913578  0.18604971  0.26950368     0.04900
N247        N  0.28003421  0.14675594  0.25814455     0.67400
H248        H  0.27809034  0.16696527  0.31496650     0.16300
H249        H  0.31867056  0.28123712  0.24895450     0.16000
N250        N  0.31984598  0.30075279  0.30530131     0.75100
O251        O  0.31051282  0.12387374  0.25073536    -0.38400
O252        O  0.24301145  0.13215890  0.26120959    -0.38300
O253        O  0.35853422  0.30897361  0.31049267    -0.39000
O254        O  0.29244118  0.32884620  0.30485005    -0.39100
C255        C  0.46058866  0.05950387  0.24816141    -0.11400
C256        C  0.44600273  0.02397929  0.23443969     0.05600
C257        C  0.94705352  0.48671868  0.25816387    -0.06700
C258        C  0.94684923  0.49112009  0.28935330    -0.07400
C259        C  0.44814403  0.03090432  0.29838994    -0.02000
C260        C  0.46151702  0.06339034  0.27959549     0.04900
N261        N  0.47554557  0.10087935  0.29178051     0.67400
H262        H  0.47200989  0.08437695  0.23441063     0.16300
H263        H  0.94706698  0.46410483  0.30323538     0.16000
N264        N  0.94638113  0.44660232  0.24651530     0.75100
O265        O  0.51454544  0.11039393  0.28997897    -0.38400
O266        O  0.44828706  0.12777903  0.29783898    -0.38300
O267        O  0.97986693  0.42522727  0.24744830    -0.39000
O268        O  0.91106241  0.43036680  0.24015584    -0.39100
C269        C  0.15334535  0.18672430  0.13541103    -0.11400
C270        C  0.19402961  0.17858526  0.14828750     0.05600
C271        C  0.20315103  0.13661856  0.15357360    -0.06700
C272        C  0.17177489  0.10615253  0.14833853    -0.07400
C273        C  0.13049101  0.11523109  0.13741746    -0.02000
C274        C  0.12164647  0.15646897  0.13130895     0.04900
N275        N  0.08075884  0.16821846  0.11984613     0.67400
H276        H  0.14603533  0.21681523  0.12735032     0.16300
H277        H  0.18012639  0.07478765  0.15256181     0.16000
N278        N  0.24509349  0.12351608  0.16208203     0.75100
O279        O  0.05189514  0.17932102  0.13770557    -0.38400
O280        O  0.07621203  0.17478815  0.09217603    -0.38300
O281        O  0.27420027  0.12212160  0.14258326    -0.39000
O282        O  0.25029603  0.10478520  0.18654846    -0.39100
C283        C  0.15989873  0.38071294  0.14106483    -0.11400
C284        C  0.15097452  0.34664811  0.15900675     0.05600
C285        C  0.10899420  0.34135114  0.17011215    -0.06700
C286        C  0.07716682  0.36911364  0.16233548    -0.07400
C287        C  0.08627461  0.40307079  0.14440386    -0.02000
C288        C  0.12846863  0.40911851  0.13416542     0.04900
N289        N  0.14041811  0.44421737  0.11723507     0.67400
H290        H  0.19136898  0.38530053  0.13165465     0.16300
H291        H  0.04513103  0.36414357  0.17082214     0.16000
N292        N  0.09803937  0.30865375  0.18978676     0.75100
O293        O  0.14952513  0.47648138  0.13068493    -0.38400
O294        O  0.14927816  0.44095774  0.08983158    -0.38300
O295        O  0.10940429  0.30986862  0.21685367    -0.39000
O296        O  0.06993663  0.28351139  0.18190535    -0.39100
C297        C  0.36205454  0.17895595  0.06664743    -0.11400
C298        C  0.31750290  0.17445082  0.06617776     0.05600
C299        C  0.30139025  0.13490169  0.06163035    -0.06700
C300        C  0.32697796  0.10165918  0.06951388    -0.07400
C301        C  0.36907549  0.10790500  0.07898165    -0.02000
C302        C  0.38769522  0.14620808  0.07455593     0.04900
N303        N  0.43197634  0.15298841  0.08002676     0.67400
H304        H  0.37676472  0.20846030  0.06544930     0.16300
H305        H  0.31358006  0.07146509  0.06945851     0.16000
N306        N  0.25907702  0.12850265  0.05029937     0.75100
O307        O  0.45722812  0.15539323  0.05810733    -0.38400
O308        O  0.44331161  0.16652942  0.10509524    -0.38300
O309        O  0.24651168  0.14805536  0.02755556    -0.39000
O310        O  0.23622257  0.10019512  0.06060287    -0.39100
C311        C  0.37934848  0.36090482  0.16127496    -0.11400
C312        C  0.39061557  0.37343790  0.13214033     0.05600
C313        C  0.36682101  0.35598941  0.10865499    -0.06700
C314        C  0.33546915  0.32574882  0.11441827    -0.07400
C315        C  0.32565761  0.31043991  0.14353224    -0.02000
C316        C  0.34605511  0.33225200  0.16744082     0.04900
N317        N  0.33214239  0.32890999  0.19799798     0.67400
H318        H  0.39505686  0.37572504  0.17978112     0.16300
H319        H  0.31759516  0.31540652  0.09531296     0.16000
N320        N  0.37458817  0.36790170  0.07836165     0.75100
O321        O  0.35826005  0.33548502  0.21898777    -0.38400
O322        O  0.29288893  0.32658600  0.20415001    -0.38300
O323        O  0.39663675  0.34534349  0.06174839    -0.39000
O324        O  0.35292373  0.39628441  0.06681984    -0.39100
C325        C  0.12024576  0.13291913  0.97167786    -0.11400
C326        C  0.13254930  0.09981423  0.95438543     0.05600
C327        C  0.17544273  0.09435738  0.94649223    -0.06700
C328        C  0.20481791  0.12425811  0.95328453    -0.07400
C329        C  0.19222619  0.15971729  0.96836763    -0.02000
C330        C  0.15009098  0.16235879  0.97949502     0.04900
N331        N  0.13699697  0.19538460  0.99781565     0.67400
H332        H  0.08733665  0.13596971  0.97895194     0.16300
H333        H  0.23647385  0.12083267  0.94399337     0.16000
N334        N  0.18868715  0.06090144  0.92865744     0.75100
O335        O  0.10603149  0.21752866  0.98974778    -0.38400
O336        O  0.15084383  0.19760251  0.02427786    -0.38300
O337        O  0.18956375  0.06462513  0.90054456    -0.39000
O338        O  0.20694576  0.03099319  0.94095756    -0.39100
C339        C  0.32002644  0.14496608  0.89762109    -0.11400
C340        C  0.32665108  0.18460610  0.90821250     0.05600
C341        C  0.36608274  0.19121022  0.92364165    -0.06700
C342        C  0.39836098  0.16068894  0.92487214    -0.07400
C343        C  0.39152877  0.12150857  0.91366029    -0.02000
C344        C  0.35118841  0.11402972  0.90055510     0.04900
N345        N  0.34056260  0.07450894  0.89066725     0.67400
H346        H  0.28943574  0.13679758  0.88817040     0.16300
H347        H  0.42820301  0.16704461  0.93623701     0.16000
N348        N  0.37293109  0.22754273  0.94013377     0.75100
O349        O  0.31711177  0.05266545  0.90706875    -0.38400
O350        O  0.34484651  0.06600776  0.86337512    -0.38300
O351        O  0.35398987  0.23210784  0.96478961    -0.39000
O352        O  0.40500497  0.24930001  0.93427379    -0.39100
C353        C  0.14830888  0.36910214  0.88995864    -0.11400
C354        C  0.13129990  0.37905215  0.91810115     0.05600
C355        C  0.14393499  0.35413825  0.94237273    -0.06700
C356        C  0.17312572  0.32161891  0.93832297    -0.07400
C357        C  0.19009537  0.31044772  0.90994197    -0.02000
C358        C  0.17697926  0.33621286  0.88543978     0.04900
N359        N  0.19164741  0.33060104  0.85540862     0.67400
H360        H  0.13960754  0.38767641  0.87078770     0.16300
H361        H  0.18274573  0.30566966  0.95836620     0.16000
N362        N  0.12590369  0.36008550  0.97133728     0.75100
O363        O  0.16401633  0.32807423  0.83487639    -0.38400
O364        O  0.22853490  0.34248372  0.84830719    -0.38300
O365        O  0.09242886  0.34119970  0.97867475    -0.39000
O366        O  0.14697521  0.37855373  0.99102615    -0.39100
C367        C  0.40345422  0.33927463  0.88538399    -0.11400
C368        C  0.36035405  0.34960744  0.88030600     0.05600
C369        C  0.34902831  0.39105913  0.87776662    -0.06700
C370        C  0.37844006  0.42030462  0.88629432    -0.07400
C371        C  0.41976565  0.40897164  0.89458398    -0.02000
C372        C  0.43318236  0.36864228  0.89232101     0.04900
N373        N  0.47605818  0.35665970  0.89940593     0.67400
H374        H  0.41417229  0.30826431  0.88638694     0.16300
H375        H  0.36952042  0.45202332  0.88554022     0.16000
N376        N  0.30896563  0.40399775  0.86539256     0.75100
O377        O  0.48657937  0.35056291  0.92633575    -0.38400
O378        O  0.50088774  0.34562276  0.87878315    -0.38300
O379        O  0.28678466  0.43015171  0.87878419    -0.39000
O380        O  0.29996030  0.39531570  0.83869127    -0.39100
C381        C  0.04867479  0.07059813  0.76656156    -0.11400
C382        C  0.04210117  0.03605121  0.74907156     0.05600
C383        C  0.52498766  0.50897161  0.75750392    -0.06700
C384        C  0.52645468  0.50700718  0.78875054    -0.07400
C385        C  0.04143181  0.03052779  0.81255953    -0.02000
C386        C  0.04871678  0.06815290  0.79806899     0.04900
N387        N  0.05712535  0.10386334  0.81483761     0.67400
H388        H  0.05448927  0.09944323  0.75563373     0.16300
H389        H  0.51302292  0.48057889  0.79971831     0.16000
N390        N  0.50400404  0.47748687  0.74145871     0.75100
O391        O  0.09400687  0.10961150  0.82548063    -0.38400
O392        O  0.03004709  0.13222626  0.81505207    -0.38300
O393        O  0.51905245  0.44203991  0.74205968    -0.39000
O394        O  0.46701851  0.48360995  0.73098088    -0.39100
C395        C  0.22965618  0.18515837  0.75685323    -0.11400
C396        C  0.22694796  0.22334768  0.74264587     0.05600
C397        C  0.22217347  0.25789545  0.76111420    -0.06700
C398        C  0.21942772  0.25355844  0.79223714    -0.07400
C399        C  0.22194988  0.21563256  0.80634399    -0.02000
C400        C  0.22757420  0.18114351  0.78830514     0.04900
N401        N  0.23084893  0.14179663  0.80157541     0.67400
H402        H  0.23368645  0.15819417  0.74355479     0.16300
H403        H  0.21712633  0.28051736  0.80563465     0.16000
N404        N  0.22153833  0.29807133  0.74897041     0.75100
O405        O  0.19729474  0.12237749  0.80784067    -0.38400
O406        O  0.26656492  0.12393583  0.80229826    -0.38300
O407        O  0.18686844  0.31769154  0.74832200    -0.39000
O408        O  0.25637740  0.31646573  0.74473652    -0.39100
C409        C  0.41691400  0.14576299  0.63759348    -0.11400
C410        C  0.37502648  0.13435388  0.62926688     0.05600
C411        C  0.36906683  0.09315274  0.62214838    -0.06700
C412        C  0.40356412  0.06519444  0.62331775    -0.07400
C413        C  0.44473985  0.07525243  0.63429422    -0.02000
C414        C  0.45124033  0.11723529  0.64025761     0.04900
N415        N  0.49278384  0.13235267  0.64749526     0.67400
H416        H  0.42315743  0.17727448  0.64235198     0.16300
H417        H  0.39760806  0.03487220  0.61547411     0.16000
N418        N  0.32815538  0.07915899  0.61257654     0.75100
O419        O  0.49935504  0.14632589  0.67325777    -0.38400
O420        O  0.51766445  0.14252660  0.62656147    -0.38300
O421        O  0.32031802  0.07655715  0.58497139    -0.39000
O422        O  0.30385607  0.06176279  0.63114897    -0.39100
C423        C  0.08721352  0.37185899  0.61588884    -0.11400
C424        C  0.12605805  0.37002219  0.63194361     0.05600
C425        C  0.13626572  0.40450803  0.64936332    -0.06700
C426        C  0.10840384  0.43840212  0.65072993    -0.07400
C427        C  0.06842447  0.43972431  0.63597170    -0.02000
C428        C  0.05900187  0.40576406  0.61743531     0.04900
N429        N  0.02149535  0.40544789  0.59902536     0.67400
H430        H  0.07859327  0.34676049  0.60170373     0.16300
H431        H  0.11944734  0.46444421  0.66286229     0.16000
N432        N  0.17597832  0.40660109  0.66512756     0.75100
O433        O  0.02181002  0.42446782  0.57442559    -0.38400
O434        O  0.98763066  0.87899876  0.61811425    -0.38300
O435        O  0.20808042  0.42237855  0.65258722    -0.39000
O436        O  0.17693766  0.39937139  0.69288666    -0.39100
C437        C  0.34258861  0.37414312  0.67461950    -0.11400
C438        C  0.34443830  0.35679564  0.64596638     0.05600
C439        C  0.37060794  0.37402148  0.62370437    -0.06700
C440        C  0.39568758  0.40698409  0.63083139    -0.07400
C441        C  0.39553793  0.42251800  0.65983440    -0.02000
C442        C  0.36785240  0.40726407  0.68154868     0.04900
N443        N  0.36538719  0.42503287  0.71049903     0.67400
H444        H  0.32172022  0.36185059  0.69176260     0.16300
H445        H  0.41674212  0.41985918  0.61403906     0.16000
N446        N  0.37184011  0.35883552  0.59387363     0.75100
O447        O  0.34394542  0.45704280  0.71394688    -0.38400
O448        O  0.37799800  0.40534641  0.73317270    -0.38300
O449        O  0.35137612  0.37703575  0.57343380    -0.39000
O450        O  0.39980840  0.33298414  0.58695543    -0.39100
C451        C  0.10297424  0.14801612  0.58076242    -0.11400
C452        C  0.14231614  0.13755852  0.59381763     0.05600
C453        C  0.15475490  0.09661162  0.59456796    -0.06700
C454        C  0.12515446  0.06688649  0.58730104    -0.07400
C455        C  0.08279341  0.07715069  0.57932979    -0.02000
C456        C  0.07383405  0.11822043  0.57242888     0.04900
N457        N  0.03482386  0.13020755  0.55799334     0.67400
H458        H  0.09425537  0.17950672  0.57758987     0.16300
H459        H  0.13520179  0.03588096  0.59027379     0.16000
N460        N  0.19716751  0.08457519  0.60274618     0.75100
O461        O  0.01323513  0.15939975  0.56805110    -0.38400
O462        O  0.02560901  0.11600118  0.53271469    -0.38300
O463        O  0.20366756  0.06721938  0.62760576    -0.39000
O464        O  0.22582339  0.08361782  0.58292241    -0.39100
Zn465      Zn  0.18800534  0.75807600  0.60324144     1.49700
Zn466      Zn  0.24283990  0.69252908  0.64842651     1.49400
Zn467      Zn  0.29151483  0.74775250  0.60367898     1.49100
Zn468      Zn  0.23117260  0.78672922  0.65954327     1.49500
O469        O  0.23872180  0.74618354  0.62859557    -1.83200
O470        O  0.15640533  0.70604092  0.60289690    -0.73900
O471        O  0.30052335  0.66114647  0.64319454    -0.73700
O472        O  0.27600739  0.74922549  0.55811678    -0.73200
O473        O  0.19854849  0.66129857  0.62678414    -0.73900
O474        O  0.20576628  0.76068050  0.55925718    -0.73500
O475        O  0.33691245  0.70095447  0.61256734    -0.74100
O476        O  0.28311710  0.81805863  0.65719735    -0.73500
O477        O  0.23219508  0.69541928  0.69397872    -0.74200
O478        O  0.31911093  0.79959433  0.61600884    -0.73600
O479        O  0.22876469  0.76162960  0.70053440    -0.74100
O480        O  0.18225538  0.82895988  0.65536071    -0.74000
O481        O  0.14868301  0.80955880  0.61470660    -0.73800
C482        C  0.16716963  0.66973939  0.60953370     0.78000
C483        C  0.33479155  0.66868634  0.62865196     0.78500
C484        C  0.24021412  0.75461722  0.54458895     0.77500
C485        C  0.31360514  0.82213591  0.63873918     0.77800
C486        C  0.22933409  0.72587487  0.71130507     0.79000
C487        C  0.15231632  0.83470010  0.63636730     0.78000
C488        C  0.03486876  0.98028516  0.64858865     0.30900
C489        C  0.47772672  0.54721637  0.64243446     0.30900
C490        C  0.49362610  0.96741714  0.64685758    -0.05300
C491        C  0.04718102  0.01628332  0.66951227    -0.06100
C492        C  0.03080977  0.50015452  0.60891776    -0.06000
C493        C  0.46418543  0.99933097  0.64700021    -0.05300
C494        C  0.51715776  0.55203591  0.66340331    -0.06100
C495        C  0.00232484  0.53307848  0.60915087    -0.06000
C496        C  0.42675013  0.98418805  0.65808490    -0.31400
N497        N  0.43216361  0.94418376  0.66318437     0.15100
C498        C  0.47312880  0.93380474  0.65722479    -0.31400
H499        H  0.48573348  0.90328473  0.65782330     0.17100
C500        C  0.51569348  0.56537702  0.69277171    -0.30300
N501        N  0.03774251  0.53242534  0.70945140     0.13900
C502        C  0.06212714  0.01212812  0.69863523    -0.30300
C503        C  0.01885856  0.56096680  0.58935972    -0.30600
N504        N  0.05627431  0.54734135  0.57771837     0.14400
H505        H  0.00916405  0.59234421  0.58920835     0.17000
C506        C  0.06169005  0.50902939  0.58814178    -0.30600
H507        H  0.09071986  0.49152426  0.58587045     0.17000
H508        H  0.08002723  0.98654051  0.70715232     0.17000
H509        H  0.39650868  0.99987703  0.66008484     0.17100
H510        H  0.49055459  0.58398951  0.70200451     0.17000
Zn511      Zn  0.05751194  0.48686991  0.95414189     1.49700
Zn512      Zn  0.02060260  0.55907630  0.90310090     1.49400
Zn513      Zn  0.02663826  0.96343982  0.89578883     1.49100
Zn514      Zn  0.46948042  0.51227702  0.94102746     1.49500
O515        O  0.01581954  0.50519437  0.92302569    -1.83200
O516        O  0.09785820  0.53303018  0.95508799    -0.73900
O517        O  0.02945798  0.55503220  0.85669147    -0.73700
O518        O  0.07312453  0.91876541  0.90091936    -0.73200
O519        O  0.07345316  0.58101252  0.92300844    -0.73900
O520        O  0.09858944  0.93186618  0.94561367    -0.73500
O521        O  0.03504527  0.98957055  0.85604819    -0.74100
O522        O  0.42493709  0.95956231  0.91572624    -0.73500
O523        O  0.47469722  0.60390635  0.90747812    -0.74200
O524        O  0.47068122  0.93586242  0.88159047    -0.73600
O525        O  0.43027709  0.56256148  0.93097008    -0.74100
O526        O  0.47659631  0.50638867  0.98750249    -0.74000
O527        O  0.03029498  0.48495491  0.99623326    -0.73800
C528        C  0.10018947  0.56771593  0.94252175     0.78000
C529        C  0.03187789  0.52425800  0.83959522     0.78500
C530        C  0.09824294  0.90928580  0.92239669     0.77500
C531        C  0.43383889  0.93728639  0.89338021     0.77800
C532        C  0.43739387  0.59660722  0.91803096     0.79000
C533        C  0.99251838  0.49095856  0.00623847     0.78000
C534        C  0.29067792  0.71474129  0.90662214     0.30900
C535        C  0.21971897  0.76638613  0.90780460     0.30900
C536        C  0.29794968  0.75842774  0.89684452    -0.05300
C537        C  0.25295473  0.70352849  0.88538440    -0.06100
C538        C  0.26886150  0.71980205  0.93717723    -0.06000
C539        C  0.26247890  0.78392733  0.89802577    -0.05300
C540        C  0.21587194  0.72913510  0.88648984    -0.06100
C541        C  0.23170978  0.74462889  0.93755805    -0.06000
C542        C  0.27424072  0.82018771  0.88651937    -0.31400
N543        N  0.31528185  0.81787736  0.87709608     0.15100
C544        C  0.33018800  0.78001865  0.88354887    -0.31400
H545        H  0.36230208  0.76909959  0.87983142     0.17100
C546        C  0.19742528  0.72653898  0.85847581    -0.30300
N547        N  0.22191352  0.70437232  0.83991311     0.13900
C548        C  0.25602309  0.69110322  0.85584081    -0.30300
C549        C  0.20305931  0.72368952  0.95540662    -0.30600
N550        N  0.22067418  0.68873943  0.96551690     0.14400
H551        H  0.16875416  0.72808639  0.95381195     0.17000
C552        C  0.26181427  0.68823232  0.95666166    -0.30600
H553        H  0.28086687  0.66078731  0.95668127     0.17000
H554        H  0.28471830  0.67974183  0.84545125     0.17000
H555        H  0.25397522  0.84657116  0.88567969     0.17100
H556        H  0.16908583  0.74323430  0.85087298     0.17000
Zn557      Zn  0.46165064  0.95926280  0.14963282     1.49700
Zn558      Zn  0.46036303  0.48396379  0.09594548     1.49400
Zn559      Zn  0.51369559  0.53811051  0.14870988     1.49100
Zn560      Zn  0.02459251  0.50685017  0.10244092     1.49500
O561        O  0.51253398  0.49223675  0.12125337    -1.83200
O562        O  0.41130470  0.91866805  0.14468608    -0.73900
O563        O  0.42460503  0.53237684  0.10477939    -0.73700
O564        O  0.51509757  0.51791110  0.19180372    -0.73200
O565        O  0.37827023  0.93989215  0.10367917    -0.73900
O566        O  0.45551684  0.98346334  0.19093738    -0.73500
O567        O  0.45900568  0.56666686  0.14057967    -0.74100
O568        O  0.06290843  0.55841204  0.11252698    -0.73500
O569        O  0.47467520  0.48671295  0.05065528    -0.74200
O570        O  0.01927159  0.59304632  0.14139217    -0.73600
O571        O  0.01638323  0.50120093  0.05659617    -0.74100
O572        O  0.09627408  0.95546294  0.09579560    -0.74000
O573        O  0.06015839  0.91038287  0.12357186    -0.73800
C574        C  0.38041733  0.91526793  0.12611896     0.78000
C575        C  0.42743001  0.56186412  0.12286934     0.78500
C576        C  0.52424738  0.48422270  0.20452666     0.77500
C577        C  0.05559019  0.58971039  0.12849959     0.77800
C578        C  0.50793108  0.49953869  0.03690954     0.79000
C579        C  0.08853394  0.91923659  0.10395247     0.78000
C580        C  0.19062175  0.71856966  0.14314067     0.30900
C581        C  0.25201914  0.78050354  0.14240297     0.30900
C582        C  0.19162248  0.74692227  0.11531757    -0.05300
C583        C  0.18916561  0.74911093  0.16919652    -0.06100
C584        C  0.23780986  0.70522869  0.14347172    -0.06000
C585        C  0.22257468  0.77729918  0.11507525    -0.05300
C586        C  0.22003448  0.78034876  0.16870745    -0.06100
C587        C  0.26921550  0.73650473  0.14317581    -0.06000
C588        C  0.21637368  0.80001108  0.08980104    -0.31400
N589        N  0.17969371  0.78801036  0.07597289     0.15100
C590        C  0.16717433  0.75315783  0.09002937    -0.31400
H591        H  0.13981217  0.73539110  0.08388065     0.17100
C592        C  0.22468400  0.79330517  0.19785302    -0.30300
N593        N  0.19794640  0.77200363  0.21585069     0.13900
C594        C  0.17704310  0.74450008  0.19881214    -0.30300
C595        C  0.30472694  0.71973407  0.12970195    -0.30600
N596        N  0.29707851  0.68069885  0.12360503     0.14400
H597        H  0.33387223  0.73460594  0.12294063     0.17000
C598        C  0.25635952  0.67200360  0.13048735    -0.30600
H599        H  0.24119930  0.64358989  0.12524063     0.17000
H600        H  0.15748662  0.72026347  0.20772637     0.17000
H601        H  0.23367330  0.82756844  0.08495214     0.17100
H602        H  0.24927302  0.81352859  0.20585893     0.17000
C603        C  0.44336494  0.97951121  0.40345791     0.30900
C604        C  0.00532927  0.53864515  0.40659888     0.30900
C605        C  0.01692411  0.97679969  0.43736557    -0.05300
C606        C  0.43815922  0.01395564  0.37939783    -0.06100
C607        C  0.46324030  0.52126687  0.39831565    -0.06000
C608        C  0.04637883  0.00831495  0.43667210    -0.05300
C609        C  0.96897799  0.54289185  0.38262499    -0.06100
C610        C  0.49407283  0.55215134  0.39770247    -0.06000
C611        C  0.07475830  0.00183849  0.45952464    -0.31400
N612        N  0.06554050  0.96629506  0.47342124     0.15100
C613        C  0.02994986  0.95116416  0.45986691    -0.31400
H614        H  0.01812245  0.92061874  0.46272247     0.17100
C615        C  0.97358367  0.55333817  0.35241071    -0.30300
N616        N  0.53429143  0.48462129  0.33421147     0.13900
C617        C  0.42576300  0.00906653  0.34982873    -0.30300
C618        C  0.47384940  0.58732933  0.39034697    -0.30600
N619        N  0.43176430  0.57930306  0.38752686     0.14400
H620        H  0.48778811  0.61723604  0.38962431     0.17000
C621        C  0.42487880  0.53918420  0.39165195    -0.30600
H622        H  0.39376110  0.52499012  0.39200187     0.17000
H623        H  0.40510630  0.98523299  0.34224655     0.17000
H624        H  0.10275316  0.02004400  0.46321542     0.17100
H625        H  0.00033591  0.56979294  0.34308294     0.17000
Zn626      Zn  0.21705365  0.81341684  0.40527552     1.49700
Zn627      Zn  0.27691403  0.76821577  0.44882387     1.49400
Zn628      Zn  0.17576900  0.74701753  0.45720548     1.49100
Zn629      Zn  0.21429740  0.71793785  0.39901345     1.49500
O630        O  0.22102296  0.76166077  0.42754196    -1.83200
O631        O  0.27229332  0.85028184  0.40430606    -0.73900
O632        O  0.26885412  0.76483164  0.49498351    -0.73700
O633        O  0.14347448  0.79825477  0.46295617    -0.73200
O634        O  0.31378943  0.82031031  0.43756921    -0.73900
O635        O  0.17569210  0.84170820  0.43138703    -0.73500
O636        O  0.20193748  0.74227521  0.49939053    -0.74100
O637        O  0.16351523  0.67737998  0.40389860    -0.73500
O638        O  0.31051784  0.72051364  0.43492492    -0.74200
O639        O  0.13421841  0.69704493  0.44624973    -0.73600
O640        O  0.26918314  0.68925552  0.40108880    -0.74100
O641        O  0.20890336  0.74015533  0.35766462    -0.74000
O642        O  0.19885775  0.80628755  0.36092711    -0.73800
C643        C  0.30757281  0.84945496  0.41889392     0.78000
C644        C  0.23728910  0.75348121  0.51121930     0.75300
C645        C  0.15099581  0.83400996  0.45350534     0.77500
C646        C  0.13444861  0.67310960  0.42369598     0.77800
C647        C  0.30397823  0.69296381  0.41562378     0.79000
C648        C  0.20149489  0.77421107  0.34522701     0.78000
C649        C  0.03788568  0.61045447  0.39419076    -0.11400
C650        C  0.04022361  0.57335025  0.41035651     0.05600
C651        C  0.07367214  0.57098806  0.43229057    -0.06700
C652        C  0.10292204  0.60352950  0.43664541    -0.07400
C653        C  0.10086174  0.63975182  0.41985104    -0.02000
C654        C  0.06780426  0.64245994  0.39818801     0.04900
N655        N  0.06342867  0.67825086  0.38029628     0.67400
H656        H  0.01196068  0.61577750  0.37871077     0.16300
H657        H  0.12774157  0.60024532  0.45344160     0.16000
N658        N  0.07788422  0.53624760  0.45140323     0.75100
O659        O  0.08022605  0.67973213  0.35466352    -0.38400
O660        O  0.03706699  0.70523999  0.38784566    -0.38300
O661        O  0.51830582  0.59163164  0.46259714    -0.39000
O662        O  0.05732168  0.53514877  0.47565876    -0.39100
C663        C  0.15667807  0.90518867  0.46703637    -0.11400
C664        C  0.13431493  0.86873828  0.47000358     0.05600
C665        C  0.09911243  0.86712116  0.48969883    -0.06700
C666        C  0.08138557  0.90348673  0.49970304    -0.07400
C667        C  0.09657968  0.94040905  0.48795990    -0.02000
C668        C  0.13913891  0.94095135  0.47727236     0.04900
N669        N  0.16271435  0.97756888  0.47295289     0.67400
H670        H  0.18733974  0.90632401  0.45575357     0.16300
H671        H  0.05073793  0.90260772  0.51098489     0.16000
N672        N  0.07875658  0.82982268  0.49740853     0.75100
O673        O  0.17407346  0.99789062  0.49534320    -0.38400
O674        O  0.17754938  0.98638517  0.44745116    -0.38300
O675        O  0.08379547  0.81507325  0.52331760    -0.39000
O676        O  0.04979061  0.81602156  0.48070176    -0.39100
C677        C  0.39371566  0.61858653  0.42402666    -0.11400
C678        C  0.40053198  0.60876943  0.39405001     0.05600
C679        C  0.37743147  0.62782723  0.37119225    -0.06700
C680        C  0.34573138  0.65549221  0.37867733    -0.07400
C681        C  0.33809234  0.66480306  0.40881921    -0.02000
C682        C  0.36278639  0.64681213  0.43162924     0.04900
N683        N  0.35541817  0.65538854  0.46247991     0.67400
H684        H  0.41230074  0.60373991  0.44145007     0.16300
H685        H  0.32739936  0.67008051  0.36100075     0.16000
N686        N  0.38647009  0.61964487  0.34054080     0.75100
O687        O  0.32690757  0.63619632  0.47659527    -0.38400
O688        O  0.38202444  0.67649191  0.47670845    -0.38300
O689        O  0.36537503  0.59309059  0.32685617    -0.39000
O690        O  0.41785322  0.63651871  0.32787907    -0.39100
C691        C  0.36802539  0.94718186  0.39200485    -0.11400
C692        C  0.40800421  0.94515344  0.40698507     0.05600
C693        C  0.41305874  0.91153534  0.42707026    -0.06700
C694        C  0.38085108  0.88127508  0.43013283    -0.07400
C695        C  0.34175230  0.88268020  0.41425143    -0.02000
C696        C  0.33612577  0.91661739  0.39479142     0.04900
N697        N  0.29793182  0.92093475  0.37746142     0.67400
H698        H  0.36012585  0.97339994  0.37857123     0.16300
H699        H  0.38647636  0.85655501  0.44572675     0.16000
N700        N  0.45008973  0.90809009  0.44578376     0.75100
O701        O  0.26805913  0.94330496  0.38667205    -0.38400
O702        O  0.29719471  0.90836686  0.35089512    -0.38300
O703        O  0.87943175  0.99065554  0.45181973    -0.39000
O704        O  0.47437898  0.87783691  0.44299858    -0.39100
C705        C  0.21040085  0.74003792  0.29619158    -0.11400
C706        C  0.19798074  0.77505195  0.31176885     0.05600
C707        C  0.18512200  0.80939081  0.29481788    -0.06700
C708        C  0.18566270  0.80811631  0.26326419    -0.07400
C709        C  0.19837154  0.77299984  0.24811695    -0.02000
C710        C  0.21115966  0.73888856  0.26492746     0.04900
N711        N  0.22747663  0.70357086  0.25058665     0.67400
H712        H  0.22133096  0.71341781  0.30830641     0.16300
H713        H  0.17551411  0.83443062  0.25046554     0.16000
N714        N  0.17050746  0.84532661  0.30911654     0.75100
O715        O  0.26139761  0.70591753  0.23539286    -0.38400
O716        O  0.21273223  0.66921231  0.25745211    -0.38300
O717        O  0.19365483  0.87654273  0.30888732    -0.39000
O718        O  0.13202525  0.84792499  0.31738516    -0.39100
C719        C  0.50681331  0.51374210  0.25468448    -0.11400
C720        C  0.52728253  0.48310446  0.23813277     0.05600
C721        C  0.05079651  0.94580569  0.25590934    -0.06700
C722        C  0.05419561  0.94570649  0.28733865    -0.07400
C723        C  0.53170603  0.48451446  0.30191476    -0.02000
C724        C  0.50853960  0.51441060  0.28613007     0.04900
N725        N  0.48512375  0.54466433  0.30185350     0.67400
H726        H  0.48856092  0.53708357  0.24319972     0.16300
H727        H  0.06864082  0.91999958  0.29870559     0.16000
N728        N  0.06751834  0.91212331  0.23985117     0.75100
O729        O  0.49991346  0.58003262  0.30366036    -0.38400
O730        O  0.44678229  0.53803402  0.30916076    -0.38300
O731        O  0.10679132  0.91104250  0.23340891    -0.39000
O732        O  0.04518849  0.88063229  0.23706590    -0.39100
C733        C  0.11342689  0.69374840  0.13258406    -0.11400
C734        C  0.15481062  0.68432622  0.14329424     0.05600
C735        C  0.16088705  0.64303402  0.15279724    -0.06700
C736        C  0.12945739  0.61291771  0.14627263    -0.07400
C737        C  0.08981049  0.62236441  0.13285856    -0.02000
C738        C  0.08210465  0.66381405  0.12665895     0.04900
N739        N  0.04356799  0.67611148  0.11216757     0.67400
H740        H  0.10539756  0.72497633  0.12781045     0.16300
H741        H  0.13504136  0.58192949  0.15336255     0.16000
N742        N  0.19614057  0.63146817  0.17175267     0.75100
O743        O  0.01949016  0.70132474  0.12487568    -0.38400
O744        O  0.04031354  0.67117639  0.08430949    -0.38300
O745        O  0.20853794  0.65473592  0.19219674    -0.39000
O746        O  0.21068589  0.59581165  0.17112575    -0.39100
C747        C  0.16624344  0.85688212  0.05779048    -0.11400
C748        C  0.15001363  0.81791262  0.06393156     0.05600
C749        C  0.10654292  0.81574686  0.07254035    -0.06700
C750        C  0.08782474  0.84910436  0.08620619    -0.07400
C751        C  0.10970242  0.88592752  0.08801477    -0.02000
C752        C  0.14766525  0.89078945  0.07121684     0.04900
N753        N  0.16993928  0.92851907  0.07004010     0.67400
H754        H  0.19759312  0.86012678  0.04777997     0.16300
H755        H  0.05570297  0.84634423  0.09506788     0.16000
N756        N  0.08173798  0.77981131  0.06857133     0.75100
O757        O  0.19220922  0.93939001  0.09211214    -0.38400
O758        O  0.17338226  0.94725605  0.04544501    -0.38300
O759        O  0.05434182  0.76944393  0.08787459    -0.39000
O760        O  0.08338770  0.76121863  0.04407571    -0.39100
C761        C  0.34909443  0.63962924  0.14954760    -0.11400
C762        C  0.32973895  0.65106853  0.12259346     0.05600
C763        C  0.34167157  0.63295303  0.09571088    -0.06700
C764        C  0.37338778  0.60318082  0.09608453    -0.07400
C765        C  0.39315477  0.59180786  0.12316333    -0.02000
C766        C  0.38066686  0.61011197  0.15011076     0.04900
N767        N  0.39840704  0.59784484  0.17827988     0.67400
H768        H  0.33901666  0.65351731  0.17025671     0.16300
H769        H  0.38310861  0.58948791  0.07522547     0.16000
N770        N  0.32235368  0.64511693  0.06809142     0.75100
O771        O  0.42596712  0.61976492  0.19085496    -0.38400
O772        O  0.38158157  0.56900778  0.19268518    -0.38300
O773        O  0.34005116  0.67173074  0.05195840    -0.39000
O774        O  0.29026666  0.62628652  0.05830512    -0.39100
C775        C  0.30286004  0.88946027  0.13152697    -0.11400
C776        C  0.34734928  0.88162407  0.13112910     0.05600
C777        C  0.36002417  0.84189758  0.13934088    -0.06700
C778        C  0.32945832  0.81107914  0.14476207    -0.07400
C779        C  0.28486683  0.81720016  0.14143962    -0.02000
C780        C  0.27206548  0.85858207  0.13795749     0.04900
N781        N  0.22972696  0.87107650  0.14615812     0.67400
H782        H  0.29189536  0.92034175  0.12852367     0.16300
H783        H  0.34143507  0.78267351  0.15322106     0.16000
N784        N  0.40434995  0.83198304  0.14224573     0.75100
O785        O  0.22461805  0.89287401  0.16890864    -0.38400
O786        O  0.19767430  0.86223298  0.13042835    -0.38300
O787        O  0.42160297  0.83176805  0.16778472    -0.39000
O788        O  0.42388324  0.81651693  0.12046577    -0.39100
C789        C  0.13203340  0.61569360  0.97769684    -0.11400
C790        C  0.13513188  0.59371366  0.95113199     0.05600
C791        C  0.17015753  0.59888249  0.93205344    -0.06700
C792        C  0.20036285  0.62805416  0.93871267    -0.07400
C793        C  0.19598959  0.65247093  0.96418927    -0.02000
C794        C  0.16229184  0.64536226  0.98425962     0.04900
N795        N  0.15727864  0.66952491  0.01032498     0.67400
H796        H  0.10498288  0.61123728  0.99249941     0.16300
H797        H  0.22573437  0.63358280  0.92272947     0.16000
N798        N  0.17426262  0.57612824  0.90515029     0.75100
O799        O  0.13317421  0.70016707  0.00939962    -0.38400
O800        O  0.17016632  0.65615092  0.03529090    -0.38300
O801        O  0.16511150  0.59248925  0.88033125    -0.39000
O802        O  0.19437684  0.54298883  0.90565918    -0.39100
C803        C  0.32975205  0.64633946  0.89510730    -0.11400
C804        C  0.33071944  0.68518069  0.90830512     0.05600
C805        C  0.36768106  0.69361792  0.92599218    -0.06700
C806        C  0.40235293  0.66554461  0.92820181    -0.07400
C807        C  0.40117978  0.62738383  0.91433135    -0.02000
C808        C  0.36400857  0.61829131  0.89769004     0.04900
N809        N  0.36075655  0.58053845  0.88259008     0.67400
H810        H  0.30149338  0.63623778  0.88353207     0.16300
H811        H  0.42972123  0.67308720  0.94194240     0.16000
N812        N  0.36918241  0.72912964  0.94397325     0.75100
O813        O  0.34054157  0.55166897  0.89457238    -0.38400
O814        O  0.37176202  0.57828253  0.85551053    -0.38300
O815        O  0.35559100  0.72737886  0.97052546    -0.39000
O816        O  0.39276743  0.75826815  0.93617539    -0.39100
C817        C  0.13901141  0.85844860  0.89065076    -0.11400
C818        C  0.12740270  0.87197421  0.91928797     0.05600
C819        C  0.14347232  0.84897978  0.94366592    -0.06700
C820        C  0.17084055  0.81503037  0.93909922    -0.07400
C821        C  0.18363055  0.80110873  0.91028566    -0.02000
C822        C  0.16645932  0.82468331  0.88567465     0.04900
N823        N  0.17580997  0.81623532  0.85500452     0.67400
H824        H  0.12734218  0.87517449  0.87132404     0.16300
H825        H  0.18328716  0.80064039  0.95905238     0.16000
N826        N  0.13163427  0.85899279  0.97354139     0.75100
O827        O  0.14476217  0.80892578  0.83778961    -0.38400
O828        O  0.20912662  0.83101774  0.84347811    -0.38300
O829        O  0.10307726  0.83866956  0.98672233    -0.39000
O830        O  0.15447659  0.88308228  0.98831391    -0.39100
C831        C  0.32750467  0.89062001  0.87893051    -0.11400
C832        C  0.34059587  0.85235160  0.86904775     0.05600
C833        C  0.38244406  0.84770553  0.85799004    -0.06700
C834        C  0.41288794  0.87681033  0.86501638    -0.07400
C835        C  0.40086716  0.91148022  0.88088928    -0.02000
C836        C  0.35733933  0.92013189  0.88495338     0.04900
N837        N  0.34267630  0.95849700  0.89516949     0.67400
H838        H  0.29483856  0.89716549  0.88493992     0.16300
H839        H  0.44597585  0.87163897  0.85892650     0.16000
N840        N  0.39402920  0.81408958  0.83969777     0.75100
O841        O  0.32474281  0.98188861  0.87654507    -0.38400
O842        O  0.33593805  0.96339900  0.92273286    -0.38300
O843        O  0.37280986  0.80697631  0.81628795    -0.39000
O844        O  0.42866559  0.79533833  0.84435073    -0.39100
C845        C  0.03813784  0.56632874  0.75871057    -0.11400
C846        C  0.03544734  0.53062733  0.74190858     0.05600
C847        C  0.53749385  0.99409810  0.75467437    -0.06700
C848        C  0.53887086  0.99285834  0.78600225    -0.07400
C849        C  0.03397827  0.52814168  0.80597677    -0.02000
C850        C  0.03750350  0.56545828  0.79032314     0.04900
N851        N  0.04111219  0.60272454  0.80600374     0.67400
H852        H  0.04146899  0.59509126  0.74715222     0.16300
H853        H  0.53748058  0.96344245  0.79683717     0.16000
N854        N  0.53140224  0.95693459  0.73909663     0.75100
O855        O  0.07759600  0.61530131  0.81358547    -0.38400
O856        O  0.00941403  0.62636415  0.80710540    -0.38300
O857        O  0.55840766  0.92870987  0.74197030    -0.39000
O858        O  0.49579158  0.94981231  0.72692465    -0.39100
C859        C  0.22400721  0.68107382  0.75733157    -0.11400
C860        C  0.22719157  0.72019980  0.74462495     0.05600
C861        C  0.22905171  0.75362050  0.76431984    -0.06700
C862        C  0.22595962  0.74757228  0.79525027    -0.07400
C863        C  0.22207229  0.70881688  0.80775387    -0.02000
C864        C  0.22199123  0.67526372  0.78859830     0.04900
N865        N  0.21975222  0.63517218  0.80062955     0.67400
H866        H  0.22324334  0.65483360  0.74302243     0.16300
H867        H  0.22844338  0.77328568  0.80979581     0.16000
N868        N  0.23617532  0.79392937  0.75360407     0.75100
O869        O  0.18378534  0.61902255  0.80514797    -0.38400
O870        O  0.25329664  0.61402135  0.80272704    -0.38300
O871        O  0.20580117  0.81913576  0.75347726    -0.39000
O872        O  0.27395146  0.80611626  0.74942703    -0.39100
C873        C  0.41151440  0.65050926  0.64403284    -0.11400
C874        C  0.37239822  0.63923792  0.63077709     0.05600
C875        C  0.36935838  0.59903007  0.62059291    -0.06700
C876        C  0.40384322  0.57151960  0.62405825    -0.07400
C877        C  0.44233587  0.58141830  0.63899317    -0.02000
C878        C  0.44630375  0.62277852  0.64785662     0.04900
N879        N  0.48598026  0.63850881  0.65867433     0.67400
H880        H  0.41533652  0.68146627  0.65129771     0.16300
H881        H  0.40020721  0.54156054  0.61481477     0.16000
N882        N  0.33143042  0.58546509  0.60605541     0.75100
O883        O  0.48634052  0.65999231  0.68187810    -0.38400
O884        O  0.51843817  0.63836369  0.64192611    -0.38300
O885        O  0.32641803  0.59260106  0.57848896    -0.39000
O886        O  0.30872728  0.55885450  0.61868683    -0.39100
C887        C  0.08214501  0.87342184  0.62537568    -0.11400
C888        C  0.12240042  0.87159477  0.63966738     0.05600
C889        C  0.13396538  0.90618505  0.65661242    -0.06700
C890        C  0.10679494  0.94066573  0.65828002    -0.07400
C891        C  0.06556281  0.94207189  0.64522798    -0.02000
C892        C  0.05413521  0.90742178  0.62794434     0.04900
N893        N  0.01444280  0.90631095  0.61196296     0.67400
H894        H  0.07207915  0.84808868  0.61189848     0.16300
H895        H  0.11922768  0.96686092  0.66950131     0.16000
N896        N  0.17389859  0.90739852  0.67217005     0.75100
O897        O  0.01120325  0.92504036  0.58734432    -0.38400
O898        O  0.99374309  0.37830538  0.60313406    -0.38300
O899        O  0.20494355  0.92652308  0.66094908    -0.39000
O900        O  0.17567483  0.89594662  0.69915646    -0.39100
C901        C  0.35974221  0.85739547  0.67388906    -0.11400
C902        C  0.34349452  0.85410669  0.64473459     0.05600
C903        C  0.35353438  0.88297158  0.62271229    -0.06700
C904        C  0.38140776  0.91390930  0.62980512    -0.07400
C905        C  0.39863616  0.91648726  0.65865248    -0.02000
C906        C  0.38729959  0.88877068  0.68101269     0.04900
N907        N  0.40305126  0.89273016  0.71086386     0.67400
H908        H  0.35082190  0.83566971  0.69108575     0.16300
H909        H  0.39058816  0.93561662  0.61267664     0.16000
N910        N  0.33413244  0.88231764  0.59374540     0.75100
O911        O  0.38940616  0.92106842  0.72702138    -0.38400
O912        O  0.42524009  0.86478030  0.72249178    -0.38300
O913        O  0.30137070  0.90371006  0.58869625    -0.39000
O914        O  0.35405888  0.86692766  0.57211170    -0.39100
C915        C  0.10857004  0.64582299  0.57692442    -0.11400
C916        C  0.14355260  0.63652915  0.59540836     0.05600
C917        C  0.15698875  0.59585865  0.59782030    -0.06700
C918        C  0.13123613  0.56540748  0.58653960    -0.07400
C919        C  0.09171396  0.57459860  0.57297278    -0.02000
C920        C  0.08388017  0.61514419  0.56459365     0.04900
N921        N  0.05015689  0.62548409  0.54439197     0.67400
H922        H  0.10012340  0.67698547  0.57200699     0.16300
H923        H  0.14091059  0.53464130  0.59125494     0.16000
N924        N  0.19656917  0.58464546  0.61154556     0.75100
O925        O  0.02617011  0.65525538  0.54996057    -0.38400
O926        O  0.05073166  0.61101895  0.51836994    -0.38300
O927        O  0.19676244  0.57107010  0.63802161    -0.39000
O928        O  0.22889240  0.57936385  0.59519049    -0.39100
Zn929      Zn  0.68941343  0.25819092  0.60326362     1.49700
Zn930      Zn  0.74375619  0.19500077  0.65082465     1.49400
Zn931      Zn  0.79324496  0.24530127  0.60436435     1.49100
Zn932      Zn  0.73221631  0.28954212  0.65893660     1.49500
O933        O  0.74004923  0.24719338  0.62908236    -1.83200
O934        O  0.65614467  0.20710093  0.60618773    -0.73900
O935        O  0.80041404  0.16156004  0.64748396    -0.73700
O936        O  0.77762174  0.24592573  0.55849537    -0.73200
O937        O  0.69835233  0.16377834  0.63157224    -0.73900
O938        O  0.70733685  0.25752717  0.55910968    -0.73500
O939        O  0.83760267  0.19755315  0.61492892    -0.74100
O940        O  0.78523927  0.31898031  0.65567573    -0.73500
O941        O  0.73213264  0.20039309  0.69548802    -0.74200
O942        O  0.82259545  0.29653396  0.61603888    -0.73600
O943        O  0.72807810  0.26678926  0.70108186    -0.74100
O944        O  0.68438265  0.33298876  0.65272395    -0.74000
O945        O  0.65110265  0.31118840  0.61263493    -0.73800
C946        C  0.66597820  0.17145557  0.61514565     0.78000
C947        C  0.83484127  0.16686319  0.63264211     0.78500
C948        C  0.74192050  0.25101883  0.54466704     0.77500
C949        C  0.81669086  0.32062982  0.63781269     0.77800
C950        C  0.72836513  0.23118455  0.71226553     0.79000
C951        C  0.65475125  0.33778351  0.63332491     0.78000
C952        C  0.53523416  0.48273154  0.64226158     0.30900
C953        C  0.97672489  0.04418151  0.64993856     0.30900
C954        C  0.99182455  0.46812890  0.64799035    -0.05300
C955        C  0.54712327  0.51878616  0.66327252    -0.06100
C956        C  0.53102824  0.99863634  0.60670629    -0.06000
C957        C  0.96283668  0.50035337  0.64829554    -0.05300
C958        C  0.01670904  0.04919625  0.67043151    -0.06100
C959        C  0.50223857  0.03159071  0.60674401    -0.06000
C960        C  0.92506012  0.48540379  0.65903292    -0.31400
N961        N  0.93008768  0.44518638  0.66405289     0.15100
C962        C  0.97107238  0.43470310  0.65818264    -0.31400
H963        H  0.98382961  0.40427237  0.65894120     0.17100
C964        C  0.01539703  0.06123387  0.70014948    -0.30300
N965        N  0.53998115  0.03379827  0.70676039     0.13900
C966        C  0.56117734  0.51518957  0.69273834    -0.30300
C967        C  0.51968416  0.05956899  0.58727380    -0.30600
N968        N  0.55811303  0.04639481  0.57720830     0.14400
H969        H  0.51068942  0.09113442  0.58720077     0.17000
C970        C  0.56221419  0.00745060  0.58612085    -0.30600
H971        H  0.59249760  0.99142902  0.58550457     0.17000
H972        H  0.57755330  0.48909321  0.70204825     0.17000
H973        H  0.89514377  0.50165009  0.66114727     0.17100
H974        H  0.99008729  0.07919013  0.70986431     0.17000
Zn975      Zn  0.55650445  0.98584822  0.95025269     1.49700
Zn976      Zn  0.51589566  0.05597780  0.89946599     1.49400
Zn977      Zn  0.53701460  0.47187138  0.88964904     1.49100
Zn978      Zn  0.96291982  0.00531133  0.94798949     1.49500
O979        O  0.51313409  0.00203481  0.91932518    -1.83200
O980        O  0.59226996  0.03599346  0.95441547    -0.73900
O981        O  0.52890622  0.05403094  0.85379049    -0.73700
O982        O  0.58545749  0.42904790  0.89455270    -0.73200
O983        O  0.56253684  0.08071481  0.92252690    -0.73900
O984        O  0.60360136  0.43859988  0.94144366    -0.73500
O985        O  0.54165698  0.49813040  0.84955891    -0.74100
O986        O  0.93092226  0.45655425  0.92482074    -0.73500
O987        O  0.96307683  0.09371925  0.91048204    -0.74200
O988        O  0.97911455  0.43050199  0.89301145    -0.73600
O989        O  0.92165886  0.05418838  0.93791955    -0.74100
O990        O  0.97383902  0.00227775  0.99372757    -0.74000
O991        O  0.52833225  0.98152844  0.99209586    -0.73800
C992        C  0.58876453  0.07170729  0.94343789     0.78000
C993        C  0.53534984  0.02379979  0.83674775     0.78500
C994        C  0.60707248  0.41795022  0.91743512     0.77500
C995        C  0.94332894  0.42995500  0.90626563     0.77800
C996        C  0.92672898  0.08670151  0.92260292     0.79000
C997        C  0.49031651  0.98603489  0.00217375     0.78000
C998        C  0.78200149  0.20662703  0.90844789     0.30900
C999        C  0.72199440  0.26958366  0.90853358     0.30900
C1000       C  0.79744641  0.24829514  0.89922363    -0.05300
C1001       C  0.74413496  0.20186409  0.88608419    -0.06100
C1002       C  0.75854303  0.21417047  0.93810105    -0.06000
C1003       C  0.76785680  0.27978203  0.89990754    -0.05300
C1004       C  0.71218791  0.23327984  0.88697719    -0.06100
C1005       C  0.72891690  0.24659693  0.93863089    -0.06000
C1006       C  0.78937374  0.31421678  0.89263234    -0.31400
N1007       N  0.83005038  0.30411379  0.88542896     0.15100
C1008       C  0.83524868  0.26374149  0.88919184    -0.31400
H1009       H  0.86503696  0.24736918  0.88665082     0.17100
C1010       C  0.69383742  0.23413554  0.85881941    -0.30300
N1011       N  0.71475072  0.20871435  0.84028858     0.13900
C1012       C  0.74569149  0.18991328  0.85636470    -0.30300
C1013       C  0.69723786  0.23434912  0.95814004    -0.30600
N1014       N  0.70395393  0.19583308  0.96764956     0.14400
H1015       H  0.66704011  0.24981192  0.96024437     0.17000
C1016       C  0.74200686  0.18414664  0.95617010    -0.30600
H1017       H  0.75218381  0.15293563  0.95464225     0.17000
H1018       H  0.77236780  0.17483929  0.84587675     0.17000
H1019       H  0.77710118  0.34475328  0.89432065     0.17100
H1020       H  0.66958528  0.25490175  0.85130885     0.17000
Zn1021     Zn  0.96159645  0.45880720  0.15293015     1.49700
Zn1022     Zn  0.96051003  0.98464422  0.10090457     1.49400
Zn1023     Zn  0.01406507  0.03796173  0.15326388     1.49100
Zn1024     Zn  0.52302274  0.00630845  0.09794133     1.49500
O1025       O  0.01308705  0.99243937  0.12541786    -1.83200
O1026       O  0.91027286  0.41848421  0.14776455    -0.73900
O1027       O  0.92494996  0.03279216  0.11016715    -0.73700
O1028       O  0.01751445  0.01576535  0.19557242    -0.73200
O1029       O  0.87868227  0.44011204  0.10640419    -0.73900
O1030       O  0.95643534  0.48250521  0.19429275    -0.73500
O1031       O  0.95903322  0.06714563  0.14592789    -0.74100
O1032       O  0.56144687  0.05796308  0.10785220    -0.73500
O1033       O  0.97453012  0.98715604  0.05627793    -0.74200
O1034       O  0.51797968  0.09251283  0.13690238    -0.73600
O1035       O  0.51451772  0.99870697  0.05218712    -0.74100
O1036       O  0.59416427  0.45432884  0.09129689    -0.74000
O1037       O  0.55939337  0.40995424  0.12058840    -0.73800
C1038       C  0.87970486  0.41540375  0.12884169     0.78000
C1039       C  0.92758420  0.06252734  0.12804591     0.78500
C1040       C  0.02683487  0.98153772  0.20743377     0.77500
C1041       C  0.55423427  0.08916328  0.12398600     0.77800
C1042       C  0.00768605  0.99882027  0.04201828     0.79000
C1043       C  0.58679237  0.41834779  0.10012416     0.78000
C1044       C  0.68918677  0.21756418  0.14020332     0.30900
C1045       C  0.74914689  0.28089262  0.14136870     0.30900
C1046       C  0.68932919  0.24731538  0.11335307    -0.05300
C1047       C  0.68690939  0.24666871  0.16705327    -0.06100
C1048       C  0.73676877  0.20535203  0.14005560    -0.06000
C1049       C  0.71942592  0.27855882  0.11394326    -0.05300
C1050       C  0.71718071  0.27845066  0.16772392    -0.06100
C1051       C  0.76717030  0.23732101  0.14079882    -0.06000
C1052       C  0.71285473  0.30157803  0.08881154    -0.31400
N1053       N  0.67721170  0.28834857  0.07421950     0.15100
C1054       C  0.66508994  0.25324517  0.08798993    -0.31400
H1055       H  0.63814914  0.23500891  0.08156666     0.17100
C1056       C  0.72173215  0.28888006  0.19745794    -0.30300
N1057       N  0.69532897  0.26580932  0.21461715     0.13900
C1058       C  0.67444892  0.23984514  0.19631731    -0.30300
C1059       C  0.80390203  0.22198513  0.12819823    -0.30600
N1060       N  0.79802983  0.18277441  0.12172549     0.14400
H1061       H  0.83301625  0.23783492  0.12268890     0.17000
C1062       C  0.75703443  0.17293285  0.12710442    -0.30600
H1063       H  0.74312618  0.14418934  0.12124545     0.17000
H1064       H  0.65409592  0.21540910  0.20386788     0.17000
H1065       H  0.72972693  0.32934958  0.08390449     0.17100
H1066       H  0.74593742  0.30888774  0.20628190     0.17000
C1067       C  0.94400415  0.47713381  0.40709187     0.30900
C1068       C  0.50714332  0.03871372  0.40312674     0.30900
C1069       C  0.50460297  0.48537885  0.43488514    -0.05300
C1070       C  0.93720509  0.51155525  0.38323619    -0.06100
C1071       C  0.97335616  0.01316072  0.40254751    -0.06000
C1072       C  0.53454511  0.51681196  0.43467572    -0.05300
C1073       C  0.47141755  0.04387623  0.37875155    -0.06100
C1074       C  0.00393688  0.04437916  0.40171083    -0.06000
C1075       C  0.56555151  0.50652928  0.45515199    -0.31400
N1076       N  0.55816656  0.46867573  0.46575575     0.15100
C1077       C  0.52025610  0.45654472  0.45415535    -0.31400
H1078       H  0.50920512  0.42551462  0.45435357     0.17100
C1079       C  0.47729429  0.05313210  0.34846341    -0.30300
N1080       N  0.04351574  0.97775887  0.33633842     0.13900
C1081       C  0.92486271  0.50634574  0.35363681    -0.30300
C1082       C  0.98286402  0.07987463  0.39664890    -0.30600
N1083       N  0.94069382  0.07160026  0.39516962     0.14400
H1084       H  0.99658488  0.10987888  0.39608984     0.17000
C1085       C  0.93431523  0.03124710  0.39829523    -0.30600
H1086       H  0.90335167  0.01679185  0.39918668     0.17000
H1087       H  0.90646523  0.48107522  0.34549860     0.17000
H1088       H  0.59457942  0.52350126  0.45837411     0.17100
H1089       H  0.50536213  0.06792450  0.33961684     0.17000
Zn1090     Zn  0.72307873  0.30658707  0.40333825     1.49700
Zn1091     Zn  0.78131197  0.26273861  0.44913061     1.49400
Zn1092     Zn  0.67933009  0.24370161  0.45584705     1.49100
Zn1093     Zn  0.72165655  0.21128982  0.39839435     1.49500
O1094       O  0.72631566  0.25587495  0.42683969    -1.83200
O1095       O  0.77698984  0.34451472  0.40378947    -0.73900
O1096       O  0.77185212  0.25936369  0.49520727    -0.73700
O1097       O  0.64633890  0.29562702  0.45898742    -0.73200
O1098       O  0.81680482  0.31584713  0.43873290    -0.73900
O1099       O  0.67914561  0.33585604  0.42573445    -0.73500
O1100       O  0.70381343  0.23983920  0.49893325    -0.74100
O1101       O  0.67113252  0.17088903  0.40387831    -0.73500
O1102       O  0.81645657  0.21519338  0.43605296    -0.74200
O1103       O  0.63813185  0.19396888  0.44401063    -0.73600
O1104       O  0.77741990  0.18305910  0.40135802    -0.74100
O1105       O  0.71430950  0.23187917  0.35622873    -0.74000
O1106       O  0.70583036  0.29813752  0.35939828    -0.73800
C1107       C  0.81093429  0.34477801  0.41981515     0.78000
C1108       C  0.73944043  0.24956733  0.51117413     0.75300
C1109       C  0.65277616  0.33028409  0.44710328     0.77500
C1110       C  0.64013340  0.16857951  0.42237043     0.77800
C1111       C  0.81137786  0.18721422  0.41684833     0.79000
C1112       C  0.70639595  0.26593437  0.34385737     0.78000
C1113       C  0.54238730  0.10931506  0.39137513    -0.11400
C1114       C  0.54345210  0.07188579  0.40711300     0.05600
C1115       C  0.57699351  0.06773654  0.42888800    -0.06700
C1116       C  0.60716697  0.09929145  0.43379946    -0.07400
C1117       C  0.60593698  0.13612136  0.41777725    -0.02000
C1118       C  0.57321395  0.14033905  0.39599456     0.04900
N1119       N  0.57052175  0.17647882  0.37833862     0.67400
H1120       H  0.51690324  0.11548131  0.37566156     0.16300
H1121       H  0.63199395  0.09478692  0.45044681     0.16000
N1122       N  0.58087660  0.03187224  0.44690543     0.75100
O1123       O  0.58991082  0.17857066  0.35363777    -0.38400
O1124       O  0.54386259  0.20358633  0.38511997    -0.38300
O1125       O  0.04752670  0.08188753  0.47645406    -0.39000
O1126       O  0.55878721  0.02856556  0.47038505    -0.39100
C1127       C  0.65093010  0.40383201  0.45201385    -0.11400
C1128       C  0.63227265  0.36657956  0.45933415     0.05600
C1129       C  0.59655305  0.36586046  0.47850556    -0.06700
C1130       C  0.57702760  0.40242840  0.48624256    -0.07400
C1131       C  0.59058079  0.43919654  0.47317332    -0.02000
C1132       C  0.63067632  0.43992679  0.45843592     0.04900
N1133       N  0.64917042  0.47601155  0.44638282     0.67400
H1134       H  0.68054358  0.40530969  0.43945321     0.16300
H1135       H  0.54723799  0.40148320  0.49859609     0.16000
N1136       N  0.57711676  0.32869779  0.48770917     0.75100
O1137       O  0.67379789  0.49672450  0.46252605    -0.38400
O1138       O  0.64912205  0.48171962  0.41842088    -0.38300
O1139       O  0.57906394  0.31774039  0.51479023    -0.39000
O1140       O  0.55173716  0.31096448  0.47022167    -0.39100
C1141       C  0.89906089  0.11120957  0.42983419    -0.11400
C1142       C  0.90887201  0.10117640  0.40031838     0.05600
C1143       C  0.88870029  0.12085520  0.37636352    -0.06700
C1144       C  0.85672150  0.14908741  0.38214073    -0.07400
C1145       C  0.84603870  0.15867393  0.41175193    -0.02000
C1146       C  0.86799602  0.14022650  0.43577295     0.04900
N1147       N  0.85781707  0.14934978  0.46613675     0.67400
H1148       H  0.91553955  0.09615449  0.44816988     0.16300
H1149       H  0.84057121  0.16392428  0.36356074     0.16000
N1150       N  0.90102956  0.11270030  0.34628270     0.75100
O1151       O  0.82722741  0.13132532  0.47887797    -0.38400
O1152       O  0.88330915  0.17026706  0.48146456    -0.38300
O1153       O  0.88175541  0.08584920  0.33164698    -0.39000
O1154       O  0.93401391  0.12919162  0.33548587    -0.39100
C1155       C  0.86897838  0.44482705  0.39595785    -0.11400
C1156       C  0.90939711  0.44216998  0.41028879     0.05600
C1157       C  0.91508881  0.40784679  0.42964326    -0.06700
C1158       C  0.88352168  0.37693566  0.43179325    -0.07400
C1159       C  0.84407409  0.37896912  0.41643182    -0.02000
C1160       C  0.83708452  0.41434845  0.39870583     0.04900
N1161       N  0.79682390  0.42110649  0.38428254     0.67400
H1162       H  0.86053949  0.47182467  0.38352360     0.16300
H1163       H  0.88975062  0.35133518  0.44646900     0.16000
N1164       N  0.95167460  0.40450112  0.44883274     0.75100
O1165       O  0.76632679  0.43635445  0.39885517    -0.38400
O1166       O  0.79419103  0.41898538  0.35617146    -0.38300
O1167       O  0.36200608  0.49826046  0.44290675    -0.39000
O1168       O  0.97561944  0.37386910  0.44679725    -0.39100
C1169       C  0.70010276  0.23030871  0.29498467    -0.11400
C1170       C  0.69894466  0.26703015  0.31069745     0.05600
C1171       C  0.69326362  0.30328225  0.29400518    -0.06700
C1172       C  0.69195494  0.30223935  0.26251880    -0.07400
C1173       C  0.69467953  0.26554087  0.24699875    -0.02000
C1174       C  0.69795726  0.22923518  0.26370756     0.04900
N1175       N  0.70256013  0.19109760  0.24933910     0.67400
H1176       H  0.70411046  0.20188506  0.30693441     0.16300
H1177       H  0.68844015  0.33029219  0.25002560     0.16000
N1178       N  0.68835505  0.34133447  0.30851214     0.75100
O1179       O  0.73940914  0.17935040  0.24183336    -0.38400
O1180       O  0.67249160  0.16574714  0.25086960    -0.38300
O1181       O  0.71755969  0.36749397  0.30652613    -0.39000
O1182       O  0.65223878  0.35130833  0.31869083    -0.39100
C1183       C  0.01748806  0.01206684  0.25800459    -0.11400
C1184       C  0.03209356  0.97933183  0.24074763     0.05600
C1185       C  0.54982030  0.45266209  0.25423046    -0.06700
C1186       C  0.55182841  0.45369785  0.28573751    -0.07400
C1187       C  0.03972646  0.97860994  0.30418300    -0.02000
C1188       C  0.02102087  0.01183298  0.28926132     0.04900
N1189       N  0.00341124  0.04466012  0.30576707     0.67400
H1190       H  0.00239503  0.03794342  0.24728267     0.16300
H1191       H  0.56948367  0.43041100  0.29772075     0.16000
N1192       N  0.57196339  0.42113407  0.23902335     0.75100
O1193       O  0.02343651  0.07767468  0.30722480    -0.38400
O1194       O  0.96504400  0.04297610  0.31438366    -0.38300
O1195       O  0.61162806  0.42436423  0.23442283    -0.39000
O1196       O  0.55408182  0.38729069  0.23570291    -0.39100
C1197       C  0.61176010  0.19306859  0.13072141    -0.11400
C1198       C  0.65386649  0.18298383  0.13951639     0.05600
C1199       C  0.66065687  0.14112554  0.14711516    -0.06700
C1200       C  0.62917902  0.11136257  0.13997386    -0.07400
C1201       C  0.58849921  0.12166344  0.12860926    -0.02000
C1202       C  0.57992148  0.16353571  0.12511774     0.04900
N1203       N  0.53960450  0.17688587  0.11391186     0.67400
H1204       H  0.60348369  0.22458669  0.12734356     0.16300
H1205       H  0.63539834  0.07989090  0.14540060     0.16000
N1206       N  0.69625195  0.12857023  0.16538194     0.75100
O1207       O  0.51727407  0.20068428  0.12937047    -0.38400
O1208       O  0.53233327  0.17402794  0.08626397    -0.38300
O1209       O  0.70875291  0.15061115  0.18652295    -0.39000
O1210       O  0.71075080  0.09298324  0.16361959    -0.39100
C1211       C  0.66337661  0.35551276  0.05344830    -0.11400
C1212       C  0.64752940  0.31674936  0.06046416     0.05600
C1213       C  0.60402743  0.31462822  0.06892802    -0.06700
C1214       C  0.58547911  0.34798026  0.08272265    -0.07400
C1215       C  0.60730790  0.38488665  0.08396313    -0.02000
C1216       C  0.64466092  0.38966693  0.06640523     0.04900
N1217       N  0.66610800  0.42770977  0.06381580     0.67400
H1218       H  0.69471246  0.35855389  0.04337054     0.16300
H1219       H  0.55357876  0.34524004  0.09197054     0.16000
N1220       N  0.57930217  0.27864688  0.06494188     0.75100
O1221       O  0.69338871  0.43760540  0.08323385    -0.38400
O1222       O  0.66375340  0.44760229  0.03964539    -0.38300
O1223       O  0.55286997  0.26755100  0.08468516    -0.39000
O1224       O  0.57967502  0.26103526  0.04001313    -0.39100
C1225       C  0.85608066  0.15011201  0.14818827    -0.11400
C1226       C  0.83181268  0.15408583  0.12202427     0.05600
C1227       C  0.83814113  0.12767300  0.09819824    -0.06700
C1228       C  0.86919180  0.09750513  0.10070269    -0.07400
C1229       C  0.89378461  0.09333671  0.12697635    -0.02000
C1230       C  0.88672242  0.11985276  0.15102540     0.04900
N1231       N  0.90868052  0.11528888  0.17893640     0.67400
H1232       H  0.84992853  0.16986830  0.16692476     0.16300
H1233       H  0.87443242  0.07771260  0.08186323     0.16000
N1234       N  0.81351612  0.13148365  0.07140701     0.75100
O1235       O  0.93700805  0.14053503  0.18615088    -0.38400
O1236       O  0.89420774  0.09117758  0.19846847    -0.38300
O1237       O  0.82518733  0.15592690  0.05118339    -0.39000
O1238       O  0.78477608  0.10588582  0.06589048    -0.39100
C1239       C  0.80120857  0.38980520  0.13185816    -0.11400
C1240       C  0.84581200  0.38198427  0.13329607     0.05600
C1241       C  0.85752530  0.34234491  0.14255934    -0.06700
C1242       C  0.82643608  0.31158778  0.14682613    -0.07400
C1243       C  0.78219176  0.31765036  0.14157082    -0.02000
C1244       C  0.76989034  0.35895825  0.13748070     0.04900
N1245       N  0.72719091  0.37122964  0.14466292     0.67400
H1246       H  0.79047205  0.42063755  0.12822996     0.16300
H1247       H  0.83754191  0.28320428  0.15598762     0.16000
N1248       N  0.90138078  0.33248147  0.14796593     0.75100
O1249       O  0.71952211  0.38557052  0.17016734    -0.38400
O1250       O  0.69808641  0.37143118  0.12515102    -0.38300
O1251       O  0.91554221  0.33225364  0.17441689    -0.39000
O1252       O  0.92332416  0.31677296  0.12743586    -0.39100
C1253       C  0.65141027  0.09595947  0.97271947    -0.11400
C1254       C  0.61448054  0.10462066  0.95594258     0.05600
C1255       C  0.60183783  0.14531815  0.95187441    -0.06700
C1256       C  0.62910832  0.17602017  0.96039155    -0.07400
C1257       C  0.66960055  0.16741582  0.97267720    -0.02000
C1258       C  0.67839968  0.12724079  0.98190155     0.04900
N1259       N  0.71474758  0.11806178  0.00023574     0.67400
H1260       H  0.65984238  0.06494390  0.97816443     0.16300
H1261       H  0.61932580  0.20630739  0.95438114     0.16000
N1262       N  0.56230863  0.15634132  0.93775194     0.75100
O1263       O  0.71766295  0.13373652  0.02578219    -0.38400
O1264       O  0.73990453  0.08978645  0.99320144    -0.38300
O1265       O  0.52997511  0.16387092  0.95363469    -0.39000
O1266       O  0.56200498  0.16603911  0.91037324    -0.39100
C1267       C  0.82243959  0.13904198  0.89435140    -0.11400
C1268       C  0.81931236  0.17424340  0.91207008     0.05600
C1269       C  0.85166529  0.17847792  0.93457010    -0.06700
C1270       C  0.88585855  0.15024338  0.93743650    -0.07400
C1271       C  0.88974516  0.11654421  0.91869836    -0.02000
C1272       C  0.85716722  0.11124227  0.89703961     0.04900
N1273       N  0.85920703  0.07784852  0.87705836     0.67400
H1274       H  0.79774359  0.13209548  0.87843007     0.16300
H1275       H  0.90945613  0.15457824  0.95488786     0.16000
N1276       N  0.84863348  0.20957670  0.95653591     0.75100
O1277       O  0.83781573  0.04633759  0.88254084    -0.38400
O1278       O  0.87657558  0.08234799  0.85178778    -0.38300
O1279       O  0.83968319  0.20009586  0.98321060    -0.39000
O1280       O  0.86299456  0.24442675  0.95090889    -0.39100
C1281       C  0.65036195  0.36676447  0.88751991    -0.11400
C1282       C  0.63631420  0.38070002  0.91551418     0.05600
C1283       C  0.65091041  0.35866828  0.94076504    -0.06700
C1284       C  0.67862259  0.32484573  0.93768406    -0.07400
C1285       C  0.69148587  0.30880162  0.90959239    -0.02000
C1286       C  0.67790766  0.33265472  0.88409428     0.04900
N1287       N  0.69286469  0.32522819  0.85435730     0.67400
H1288       H  0.64095855  0.38362381  0.86766642     0.16300
H1289       H  0.69121025  0.31229510  0.95822224     0.16000
N1290       N  0.63701020  0.36940980  0.97005135     0.75100
O1291       O  0.66588266  0.32422739  0.83330813    -0.38400
O1292       O  0.73102664  0.33363670  0.84786557    -0.38300
O1293       O  0.60681401  0.35008020  0.98221239    -0.39000
O1294       O  0.65907188  0.39343556  0.98543008    -0.39100
C1295       C  0.89926907  0.32614048  0.90286824    -0.11400
C1296       C  0.86382570  0.33267272  0.88419846     0.05600
C1297       C  0.85713562  0.37083748  0.87064206    -0.06700
C1298       C  0.88292151  0.40302260  0.87889347    -0.07400
C1299       C  0.91576991  0.39683871  0.89954415    -0.02000
C1300       C  0.92525839  0.35814034  0.91075341     0.04900
N1301       N  0.95923254  0.35159287  0.93174026     0.67400
H1302       H  0.90455628  0.29706066  0.91356913     0.16300
H1303       H  0.87769198  0.43271479  0.86901691     0.16000
N1304       N  0.82394292  0.37718028  0.84898909     0.75100
O1305       O  0.95412740  0.36142344  0.95871292    -0.38400
O1306       O  0.99084268  0.32993195  0.92461723    -0.38300
O1307       O  0.79872589  0.40685167  0.85142140    -0.39000
O1308       O  0.82368286  0.35668675  0.82530995    -0.39100
C1309       C  0.53888761  0.06726186  0.75625610    -0.11400
C1310       C  0.53851921  0.03163601  0.73924767     0.05600
C1311       C  0.03088652  0.49351370  0.75748113    -0.06700
C1312       C  0.03078428  0.49260882  0.78887065    -0.07400
C1313       C  0.53914876  0.02830560  0.80328774    -0.02000
C1314       C  0.53897156  0.06596998  0.78787802     0.04900
N1315       N  0.53852693  0.10319017  0.80383445     0.67400
H1316       H  0.53943693  0.09631857  0.74486450     0.16300
H1317       H  0.02681713  0.46352792  0.79987437     0.16000
N1318       N  0.02335134  0.45665359  0.74185531     0.75100
O1319       O  0.57311794  0.11775890  0.81345392    -0.38400
O1320       O  0.50488060  0.12432623  0.80438190    -0.38300
O1321       O  0.04879584  0.42723464  0.74512147    -0.39000
O1322       O  0.98783472  0.45121361  0.72908810    -0.39100
C1323       C  0.71402160  0.18733767  0.75752307    -0.11400
C1324       C  0.72468386  0.22554654  0.74539975     0.05600
C1325       C  0.73235060  0.25772238  0.76539982    -0.06700
C1326       C  0.72745251  0.25168707  0.79623494    -0.07400
C1327       C  0.71638809  0.21386118  0.80821808    -0.02000
C1328       C  0.71057101  0.18122912  0.78863971     0.04900
N1329       N  0.70147572  0.14172940  0.80007889     0.67400
H1330       H  0.70866287  0.16194170  0.74284737     0.16300
H1331       H  0.73458335  0.27625893  0.81115039     0.16000
N1332       N  0.74820394  0.29591848  0.75509900     0.75100
O1333       O  0.66350988  0.12892390  0.79990912    -0.38400
O1334       O  0.73179493  0.11726812  0.80495281    -0.38300
O1335       O  0.72556078  0.32729804  0.75791259    -0.39000
O1336       O  0.78723420  0.29936540  0.74836793    -0.39100
C1337       C  0.91115235  0.14801065  0.64925670    -0.11400
C1338       C  0.87173336  0.13664302  0.63640363     0.05600
C1339       C  0.86760330  0.09562404  0.62825345    -0.06700
C1340       C  0.90164537  0.06769339  0.63269298    -0.07400
C1341       C  0.94076566  0.07806028  0.64677493    -0.02000
C1342       C  0.94530460  0.11984363  0.65430215     0.04900
N1343       N  0.98491298  0.13531973  0.66536803     0.67400
H1344       H  0.91570517  0.17935379  0.65534220     0.16300
H1345       H  0.89721028  0.03709667  0.62484424     0.16000
N1346       N  0.82915720  0.08184885  0.61443390     0.75100
O1347       O  0.98527334  0.15517095  0.68935571    -0.38400
O1348       O  0.01686396  0.13724467  0.64820111    -0.38300
O1349       O  0.82713674  0.07967502  0.58630376    -0.39000
O1350       O  0.80069099  0.06508660  0.63018428    -0.39100
C1351       C  0.58404001  0.37512520  0.62149938    -0.11400
C1352       C  0.62471271  0.37488319  0.63521629     0.05600
C1353       C  0.63623977  0.41095342  0.65039273    -0.06700
C1354       C  0.60789384  0.44466162  0.65199216    -0.07400
C1355       C  0.56627828  0.44456093  0.63948642    -0.02000
C1356       C  0.55543642  0.40886830  0.62305866     0.04900
N1357       N  0.51570041  0.40602056  0.60718263     0.67400
H1358       H  0.57421167  0.34872984  0.60908655     0.16300
H1359       H  0.61967285  0.47166469  0.66258223     0.16000
N1360       N  0.67774637  0.41489497  0.66342493     0.75100
O1361       O  0.50966719  0.42766992  0.58417119    -0.38400
O1362       O  0.49713899  0.88062692  0.60087756    -0.38300
O1363       O  0.70598994  0.43514234  0.64986925    -0.39000
O1364       O  0.68326092  0.40561424  0.69060200    -0.39100
C1365       C  0.87445894  0.34724934  0.66776426    -0.11400
C1366       C  0.84687529  0.35211826  0.64339107     0.05600
C1367       C  0.84203099  0.38972230  0.62914471    -0.06700
C1368       C  0.86673158  0.42191779  0.63857618    -0.07400
C1369       C  0.89644123  0.41668710  0.66186593    -0.02000
C1370       C  0.89930160  0.37946605  0.67720489     0.04900
N1371       N  0.92748772  0.37417162  0.70215079     0.67400
H1372       H  0.87602619  0.31862215  0.67977069     0.16300
H1373       H  0.86493630  0.45022336  0.62622794     0.16000
N1374       N  0.81244101  0.39539301  0.60502551     0.75100
O1375       O  0.91766767  0.38933830  0.72701686    -0.38400
O1376       O  0.95728130  0.34840907  0.70093396    -0.38300
O1377       O  0.78024435  0.41797629  0.60839150    -0.39000
O1378       O  0.82188129  0.38298335  0.57925288    -0.39100
C1379       C  0.61878864  0.14204715  0.57701080    -0.11400
C1380       C  0.64099826  0.13744761  0.60411700     0.05600
C1381       C  0.64237277  0.09939195  0.61836796    -0.06700
C1382       C  0.61958336  0.06764533  0.60634383    -0.07400
C1383       C  0.59391838  0.07301458  0.58064034    -0.02000
C1384       C  0.59554013  0.11006579  0.56500728     0.04900
N1385       N  0.57292472  0.11598846  0.53749313     0.67400
H1386       H  0.61971515  0.17059842  0.56492129     0.16300
H1387       H  0.61853449  0.03980329  0.61924944     0.16000
N1388       N  0.66365038  0.09316307  0.64638695     0.75100
O1389       O  0.55580721  0.14983457  0.53190495    -0.38400
O1390       O  0.57764496  0.09096536  0.51660212    -0.38300
O1391       O  0.64369091  0.09957299  0.67040291    -0.39000
O1392       O  0.69857127  0.07395112  0.64719977    -0.39100
Zn1393     Zn  0.69841979  0.75937730  0.59748317     1.49700
Zn1394     Zn  0.74883550  0.69265966  0.64427129     1.49400
Zn1395     Zn  0.80232261  0.75103183  0.60381301     1.49100
Zn1396     Zn  0.73567101  0.78611730  0.65712686     1.49500
O1397       O  0.74678332  0.74715814  0.62532231    -1.83200
O1398       O  0.66566867  0.70767585  0.59561960    -0.73900
O1399       O  0.80580113  0.66029106  0.63916892    -0.73700
O1400       O  0.79049375  0.75806916  0.55770261    -0.73200
O1401       O  0.70335101  0.66284395  0.62269072    -0.73900
O1402       O  0.71974595  0.76546912  0.55445539    -0.73500
O1403       O  0.84563164  0.70181386  0.61203692    -0.74100
O1404       O  0.78830336  0.81659047  0.66047143    -0.73500
O1405       O  0.73562086  0.69376104  0.68957188    -0.74200
O1406       O  0.82968667  0.80099478  0.62114599    -0.73600
O1407       O  0.72609282  0.75923312  0.69703484    -0.74100
O1408       O  0.68822318  0.82912897  0.65023506    -0.74000
O1409       O  0.65863745  0.80991376  0.60800920    -0.73800
C1410       C  0.67302650  0.67153912  0.60461394     0.78000
C1411       C  0.84135397  0.66815096  0.62630621     0.78500
C1412       C  0.75634101  0.76299764  0.54199225     0.77500
C1413       C  0.82134341  0.82161759  0.64449241     0.77800
C1414       C  0.72746756  0.72312420  0.70707852     0.79000
C1415       C  0.66019714  0.83482792  0.62984942     0.78000
C1416       C  0.53888353  0.97739094  0.63689745     0.30900
C1417       C  0.98010698  0.54202407  0.63901843     0.30900
C1418       C  0.99038132  0.97109585  0.66074253    -0.05300
C1419       C  0.54888607  0.01278786  0.65904100    -0.06100
C1420       C  0.52633864  0.50360201  0.61195802    -0.06000
C1421       C  0.96111203  0.00301045  0.66138223    -0.05300
C1422       C  0.01766058  0.54529450  0.66176333    -0.06100
C1423       C  0.49799535  0.53676389  0.61227784    -0.06000
C1424       C  0.92391553  0.98804087  0.67304467    -0.31400
N1425       N  0.92936408  0.94791803  0.67838956     0.15100
C1426       C  0.97034405  0.93779125  0.67206807    -0.31400
H1427       H  0.98312697  0.90735570  0.67262505     0.17100
C1428       C  0.01303888  0.55608775  0.69163568    -0.30300
N1429       N  0.54299305  0.54382781  0.71004448     0.13900
C1430       C  0.56094389  0.00768593  0.68884697    -0.30300
C1431       C  0.51453272  0.56464356  0.59251017    -0.30600
N1432       N  0.55169733  0.55093552  0.58072985     0.14400
H1433       H  0.50569790  0.59619807  0.59326030     0.17000
C1434       C  0.55657658  0.51230629  0.59063848    -0.30600
H1435       H  0.58536389  0.49454784  0.58791298     0.17000
H1436       H  0.57890563  0.98234593  0.69759928     0.17000
H1437       H  0.89363671  0.00385041  0.67442848     0.17100
H1438       H  0.98760792  0.57498546  0.70017236     0.17000
Zn1439     Zn  0.57027001  0.49366209  0.94958182     1.49700
Zn1440     Zn  0.52972721  0.56688645  0.90276095     1.49400
Zn1441     Zn  0.52494758  0.96273401  0.88772514     1.49100
Zn1442     Zn  0.95820696  0.50574173  0.94155702     1.49500
O1443       O  0.52602514  0.51182436  0.92075987    -1.83200
O1444       O  0.61060212  0.53931598  0.95099822    -0.73900
O1445       O  0.54123717  0.56444490  0.85675058    -0.73700
O1446       O  0.57111014  0.91908980  0.89520663    -0.73200
O1447       O  0.57880817  0.59054370  0.92582531    -0.73900
O1448       O  0.59478061  0.93292117  0.94043553    -0.73500
O1449       O  0.53638979  0.98821280  0.84774637    -0.74100
O1450       O  0.93186436  0.95724546  0.93269332    -0.73500
O1451       O  0.96689063  0.59772740  0.90844121    -0.74200
O1452       O  0.97199973  0.93599648  0.89447583    -0.73600
O1453       O  0.92002042  0.55636343  0.92960604    -0.74100
O1454       O  0.96155809  0.49900297  0.98825040    -0.74000
O1455       O  0.54628121  0.49345952  0.99161922    -0.73800
C1456       C  0.60795056  0.57637710  0.94317391     0.78000
C1457       C  0.54274543  0.53407028  0.83919765     0.78500
C1458       C  0.59610713  0.91062641  0.91697128     0.77500
C1459       C  0.93806300  0.93481673  0.91002887     0.77800
C1460       C  0.92864662  0.59068603  0.91743520     0.79000
C1461       C  0.50990134  0.49967798  0.00359629     0.78000
C1462       C  0.78810898  0.71485042  0.90088501     0.30900
C1463       C  0.71964868  0.76930813  0.90111439     0.30900
C1464       C  0.79646312  0.75682984  0.88777775    -0.05300
C1465       C  0.74856133  0.70291438  0.88148676    -0.06100
C1466       C  0.76885724  0.72456374  0.93157304    -0.06000
C1467       C  0.76212785  0.78400771  0.88829678    -0.05300
C1468       C  0.71246026  0.72992157  0.88232287    -0.06100
C1469       C  0.73306983  0.75041110  0.93142845    -0.06000
C1470       C  0.77725570  0.82072249  0.87954401    -0.31400
N1471       N  0.81948734  0.81698209  0.87380401     0.15100
C1472       C  0.83125589  0.77781631  0.87773354    -0.31400
H1473       H  0.86386630  0.76691135  0.87725482     0.17100
C1474       C  0.69309806  0.72643569  0.85457176    -0.30300
N1475       N  0.71677429  0.70305825  0.83598308     0.13900
C1476       C  0.75040805  0.68910154  0.85222118    -0.30300
C1477       C  0.70512106  0.73322922  0.95167356    -0.30600
N1478       N  0.72226205  0.69969692  0.96471060     0.14400
H1479       H  0.67121252  0.73932562  0.95052982     0.17000
C1480       C  0.76260590  0.69667237  0.95403220    -0.30600
H1481       H  0.78330248  0.67082471  0.95723994     0.17000
H1482       H  0.77886670  0.67639432  0.84229788     0.17000
H1483       H  0.76049687  0.84926327  0.88175145     0.17100
H1484       H  0.66513424  0.74302277  0.84755693     0.17000
Zn1485     Zn  0.01555352  0.94045306  0.14715289     1.49700
Zn1486     Zn  0.92267155  0.48777056  0.09333103     1.49400
Zn1487     Zn  0.96467132  0.55573403  0.14323384     1.49100
Zn1488     Zn  0.56155746  0.50524014  0.09472069     1.49500
O1489       O  0.96822976  0.50238158  0.12302668    -1.83200
O1490       O  0.95932169  0.90454592  0.14658066    -0.73900
O1491       O  0.89070906  0.53901028  0.08796471    -0.73700
O1492       O  0.95048428  0.54894919  0.18849947    -0.73200
O1493       O  0.92326794  0.93239919  0.10927275    -0.73900
O1494       O  0.03102208  0.94992538  0.19134723    -0.73500
O1495       O  0.92012529  0.58457566  0.11874089    -0.74100
O1496       O  0.60248066  0.55339472  0.10774676    -0.73500
O1497       O  0.94867323  0.48164282  0.05039011    -0.74200
O1498       O  0.56420017  0.57963758  0.14427051    -0.73600
O1499       O  0.54114280  0.51105077  0.05127393    -0.74100
O1500       O  0.55592058  0.95915513  0.11333371    -0.74000
O1501       O  0.51648813  0.92875692  0.14844762    -0.73800
C1502       C  0.92674995  0.90443230  0.12913678     0.78000
C1503       C  0.89483698  0.57499006  0.09745528     0.78500
C1504       C  0.95134674  0.51749828  0.20548557     0.77500
C1505       C  0.59750212  0.58064725  0.12770170     0.77800
C1506       C  0.98542995  0.49076326  0.03948619     0.79000
C1507       C  0.55078262  0.93173799  0.13318256     0.78000
C1508       C  0.72841926  0.71268285  0.14437655     0.30900
C1509       C  0.79183187  0.77276183  0.14230678     0.30900
C1510       C  0.71415432  0.75601129  0.15142940    -0.05300
C1511       C  0.76583189  0.70799064  0.16717773    -0.06100
C1512       C  0.75089382  0.71943977  0.11438670    -0.06000
C1513       C  0.74588882  0.78601329  0.14978553    -0.05300
C1514       C  0.79907469  0.73756141  0.16548653    -0.06100
C1515       C  0.78344539  0.74850602  0.11323252    -0.06000
C1516       C  0.72552014  0.82252780  0.15146294    -0.31400
N1517       N  0.68307839  0.81592050  0.15522315     0.15100
C1518       C  0.67589696  0.77551432  0.15561489    -0.31400
H1519       H  0.64466410  0.76178086  0.15654423     0.17100
C1520       C  0.81648829  0.73921061  0.19398246    -0.30300
N1521       N  0.79393705  0.71572164  0.21334143     0.13900
C1522       C  0.76288634  0.69723334  0.19726453    -0.30300
C1523       C  0.81047348  0.73521776  0.09097619    -0.30600
N1524       N  0.79440775  0.70165122  0.07743310     0.14400
H1525       H  0.84298144  0.74555421  0.08869224     0.17000
C1526       C  0.75728851  0.69281068  0.09160711    -0.30600
H1527       H  0.74009305  0.66473347  0.08972597     0.17000
H1528       H  0.73573883  0.68198024  0.20719119     0.17000
H1529       H  0.74032713  0.85187914  0.14861436     0.17100
H1530       H  0.84171731  0.75924816  0.20085840     0.17000
C1531       C  0.99012619  0.97004953  0.40914378     0.30900
C1532       C  0.53997249  0.54021247  0.40514487     0.30900
C1533       C  0.48930597  0.96565563  0.39618326    -0.05300
C1534       C  0.02499795  0.96689172  0.38431256    -0.06100
C1535       C  0.95070892  0.50018421  0.43619962    -0.06000
C1536       C  0.52125231  0.99537857  0.39649302    -0.05300
C1537       C  0.54625505  0.50617147  0.38136353    -0.06100
C1538       C  0.98042558  0.53156721  0.43569239    -0.06000
C1539       C  0.55919001  0.97677680  0.39042906    -0.31400
N1540       N  0.55189216  0.93669882  0.38638573     0.15100
C1541       C  0.50903183  0.93005394  0.38896892    -0.31400
H1542       H  0.49336247  0.90109388  0.38688619     0.17100
C1543       C  0.55564378  0.51178574  0.35107973    -0.30300
N1544       N  0.94588859  0.53223104  0.33523286     0.13900
C1545       C  0.01855133  0.95560202  0.35475889    -0.30300
C1546       C  0.96730915  0.55856940  0.45691082    -0.30600
N1547       N  0.93167739  0.54453248  0.47099016     0.14400
H1548       H  0.97837654  0.58951474  0.45756830     0.17000
C1549       C  0.92255232  0.50804701  0.45884945    -0.30600
H1550       H  0.89337147  0.49125109  0.46245764     0.17000
H1551       H  0.99239315  0.93734113  0.34665515     0.17000
H1552       H  0.59000998  0.99128883  0.39100298     0.17100
H1553       H  0.57232849  0.53754977  0.34165712     0.17000
Zn1554     Zn  0.77543757  0.79641094  0.39462791     1.49700
Zn1555     Zn  0.81547820  0.76296239  0.45270736     1.49400
Zn1556     Zn  0.71273629  0.74882010  0.44717013     1.49100
Zn1557     Zn  0.76641502  0.70099410  0.40304257     1.49500
O1558       O  0.76740573  0.75296657  0.42440519    -1.83200
O1559       O  0.82702121  0.83662892  0.40136697    -0.73900
O1560       O  0.79447511  0.77026040  0.49579856    -0.73700
O1561       O  0.67934311  0.79607218  0.43102121    -0.73200
O1562       O  0.85910914  0.81018624  0.44113751    -0.73900
O1563       O  0.71976562  0.82554622  0.39562672    -0.73500
O1564       O  0.72519986  0.75487731  0.49303629    -0.74100
O1565       O  0.71004937  0.66775953  0.40312035    -0.73500
O1566       O  0.84310889  0.70907980  0.45681934    -0.74200
O1567       O  0.67313300  0.69693474  0.43873220    -0.73600
O1568       O  0.80647445  0.66794797  0.42671316    -0.74100
O1569       O  0.78316515  0.70643351  0.35923065    -0.74000
O1570       O  0.78194391  0.77294838  0.35275382    -0.73800
C1571       C  0.85779819  0.83720445  0.42031858     0.78000
C1572       C  0.75863133  0.76340377  0.50850856     0.75300
C1573       C  0.68487997  0.82243368  0.41029671     0.77500
C1574       C  0.67655587  0.66863290  0.41935031     0.77800
C1575       C  0.83340489  0.67386555  0.44757123     0.79000
C1576       C  0.78532379  0.73740372  0.34206827     0.78000
C1577       C  0.61470952  0.57187682  0.39423456    -0.11400
C1578       C  0.57415156  0.57543849  0.40786836     0.05600
C1579       C  0.56833614  0.61038130  0.42627104    -0.06700
C1580       C  0.60120903  0.64005855  0.42915180    -0.07400
C1581       C  0.64152775  0.63631234  0.41527078    -0.02000
C1582       C  0.64762553  0.60102095  0.39773616     0.04900
N1583       N  0.68812560  0.59268712  0.38441487     0.67400
H1584       H  0.62217977  0.54516216  0.38150920     0.16300
H1585       H  0.59523992  0.66611842  0.44306438     0.16000
N1586       N  0.52945529  0.61663026  0.44262677     0.75100
O1587       O  0.71327425  0.56824033  0.39731785    -0.38400
O1588       O  0.69415861  0.60163977  0.35725312    -0.38300
O1589       O  0.11026425  0.51372874  0.44868816    -0.39000
O1590       O  0.51109029  0.65066297  0.44140177    -0.39100
C1591       C  0.65906319  0.88577037  0.38655798    -0.11400
C1592       C  0.64965850  0.85009018  0.40240769     0.05600
C1593       C  0.60677818  0.84120812  0.40956622    -0.06700
C1594       C  0.57487883  0.86913042  0.40257887    -0.07400
C1595       C  0.58431710  0.90576431  0.38785094    -0.02000
C1596       C  0.62692518  0.91320589  0.37873414     0.04900
N1597       N  0.63822835  0.94791692  0.36114410     0.67400
H1598       H  0.69167127  0.89253291  0.38004020     0.16300
H1599       H  0.54270849  0.86231187  0.40974510     0.16000
N1600       N  0.59479093  0.80384677  0.42356554     0.75100
O1601       O  0.66660200  0.97183109  0.37049302    -0.38400
O1602       O  0.62633480  0.95019908  0.33419782    -0.38300
O1603       O  0.58056103  0.80384061  0.44996746    -0.39000
O1604       O  0.59096194  0.77249204  0.40790128    -0.39100
C1605       C  0.85742657  0.56654379  0.47128602    -0.11400
C1606       C  0.89928928  0.57164072  0.48204192     0.05600
C1607       C  0.91124554  0.61062604  0.49143492    -0.06700
C1608       C  0.88849743  0.64403576  0.48072109    -0.07400
C1609       C  0.85263577  0.63862529  0.46247134    -0.02000
C1610       C  0.83491215  0.59954475  0.46001710     0.04900
N1611       N  0.79636275  0.59213466  0.44378211     0.67400
H1612       H  0.84473610  0.53692547  0.46656909     0.16300
H1613       H  0.90028455  0.67411982  0.48540141     0.16000
N1614       N  0.94937755  0.61690599  0.50832934     0.75100
O1615       O  0.79872388  0.58229028  0.41662409    -0.38400
O1616       O  0.76198869  0.58618983  0.45789168    -0.38300
O1617       O  0.95412371  0.59899448  0.53316934    -0.39000
O1618       O  0.97406334  0.64559015  0.50126018    -0.39100
C1619       C  0.95970088  0.89759387  0.39752618    -0.11400
C1620       C  0.95563302  0.93491587  0.41277751     0.05600
C1621       C  0.91974547  0.93765641  0.43258176    -0.06700
C1622       C  0.88869377  0.90611546  0.43444677    -0.07400
C1623       C  0.89217584  0.87005711  0.41806447    -0.02000
C1624       C  0.92872056  0.86615515  0.39967749     0.04900
N1625       N  0.93532434  0.82988885  0.38318313     0.67400
H1626       H  0.98782327  0.89170314  0.38428459     0.16300
H1627       H  0.86171294  0.90967824  0.44938160     0.16000
N1628       N  0.91451647  0.97167809  0.45187492     0.75100
O1629       O  0.92242569  0.82782798  0.35648410    -0.38400
O1630       O  0.95963967  0.80264745  0.39356623    -0.38300
O1631       O  0.45138741  0.92774295  0.46982441    -0.39000
O1632       O  0.93942732  0.97574872  0.47386162    -0.39100
C1633       C  0.78431566  0.69314984  0.29643737    -0.11400
C1634       C  0.79026111  0.73176889  0.30897110     0.05600
C1635       C  0.79888608  0.76447157  0.28928293    -0.06700
C1636       C  0.80085419  0.75820623  0.25834689    -0.07400
C1637       C  0.79448010  0.71989735  0.24572254    -0.02000
C1638       C  0.78632928  0.68703972  0.26528835     0.04900
N1639       N  0.78094601  0.64710304  0.25398895     0.67400
H1640       H  0.77769132  0.66740245  0.31084246     0.16300
H1641       H  0.80619157  0.78399779  0.24408767     0.16000
N1642       N  0.80542561  0.80454085  0.30011532     0.75100
O1643       O  0.81340338  0.62676939  0.24660946    -0.38400
O1644       O  0.74517873  0.62977168  0.25642959    -0.38300
O1645       O  0.84300955  0.81733412  0.30397659    -0.39000
O1646       O  0.77452684  0.82916976  0.30052760    -0.39100
C1647       C  0.94764133  0.55966289  0.25250119    -0.11400
C1648       C  0.94785171  0.52125094  0.23900300     0.05600
C1649       C  0.43130097  0.99219540  0.25304939    -0.06700
C1650       C  0.43332531  0.99553398  0.28428999    -0.07400
C1651       C  0.94686564  0.52933458  0.30278677    -0.02000
C1652       C  0.94714683  0.56390902  0.28392584     0.04900
N1653       N  0.94558121  0.60356925  0.29627849     0.67400
H1654       H  0.94814597  0.58671126  0.23864219     0.16300
H1655       H  0.42316600  0.96966331  0.29733899     0.16000
N1656       N  0.41260917  0.95665372  0.24060485     0.75100
O1657       O  0.97969349  0.62354357  0.29898052    -0.38400
O1658       O  0.91003963  0.62148384  0.29839375    -0.38300
O1659       O  0.43138548  0.92299964  0.24342226    -0.39000
O1660       O  0.37439670  0.95774510  0.23146940    -0.39100
C1661       C  0.65284438  0.68559775  0.12984612    -0.11400
C1662       C  0.69383289  0.67765552  0.14225493     0.05600
C1663       C  0.70359258  0.63573467  0.14708930    -0.06700
C1664       C  0.67239016  0.60505800  0.14215583    -0.07400
C1665       C  0.63068248  0.61399435  0.13201175    -0.02000
C1666       C  0.62136207  0.65513552  0.12601692     0.04900
N1667       N  0.58023061  0.66650886  0.11477917     0.67400
H1668       H  0.64509208  0.71563296  0.12191801     0.16300
H1669       H  0.68112044  0.57372919  0.14613723     0.16000
N1670       N  0.74585730  0.62301993  0.15512830     0.75100
O1671       O  0.55111506  0.67649401  0.13279987    -0.38400
O1672       O  0.57525057  0.67306588  0.08714261    -0.38300
O1673       O  0.77387374  0.61968069  0.13500492    -0.39000
O1674       O  0.75207781  0.60602939  0.18015495    -0.39100
C1675       C  0.65699512  0.87679973  0.13011114    -0.11400
C1676       C  0.65066529  0.84611920  0.15144727     0.05600
C1677       C  0.61151208  0.84387056  0.16689339    -0.06700
C1678       C  0.57930923  0.87180886  0.16036438    -0.07400
C1679       C  0.58564768  0.90267917  0.13899622    -0.02000
C1680       C  0.62533362  0.90521147  0.12398258     0.04900
N1681       N  0.63436950  0.93635025  0.10251758     0.67400
H1682       H  0.68654552  0.87836909  0.11755592     0.16300
H1683       H  0.54939284  0.86948126  0.17246279     0.16000
N1684       N  0.60437953  0.81424274  0.18983033     0.75100
O1685       O  0.65087768  0.96907766  0.11106993    -0.38400
O1686       O  0.63326226  0.92842714  0.07496789    -0.38300
O1687       O  0.62027477  0.81941420  0.21546801    -0.39000
O1688       O  0.57580849  0.78777710  0.18633220    -0.39100
C1689       C  0.86495824  0.67605171  0.06440224    -0.11400
C1690       C  0.82049654  0.67136025  0.06292392     0.05600
C1691       C  0.80499785  0.63133539  0.06034040    -0.06700
C1692       C  0.82982654  0.59932870  0.07127323    -0.07400
C1693       C  0.87097306  0.60696498  0.08207334    -0.02000
C1694       C  0.88980595  0.64479095  0.07607200     0.04900
N1695       N  0.93331032  0.65270554  0.08334764     0.67400
H1696       H  0.87961868  0.70539397  0.06143344     0.16300
H1697       H  0.81666004  0.56904266  0.07205050     0.16000
N1698       N  0.76490886  0.62313984  0.04633950     0.75100
O1699       O  0.96187470  0.64616957  0.06409272    -0.38400
O1700       O  0.94162117  0.67440154  0.10566153    -0.38300
O1701       O  0.76093497  0.63104294  0.01886021    -0.39000
O1702       O  0.73854428  0.59949141  0.05873594    -0.39100
C1703       C  0.87517620  0.86189178  0.16053325    -0.11400
C1704       C  0.89222195  0.87176440  0.13235039     0.05600
C1705       C  0.87426520  0.85152656  0.10769088    -0.06700
C1706       C  0.84144148  0.82223733  0.11159708    -0.07400
C1707       C  0.82576292  0.80937456  0.14005995    -0.02000
C1708       C  0.84163884  0.83293407  0.16484185     0.04900
N1709       N  0.82378918  0.83036705  0.19447222     0.67400
H1710       H  0.88692646  0.87864286  0.17955189     0.16300
H1711       H  0.82756349  0.81056166  0.09140165     0.16000
N1712       N  0.89068081  0.85864485  0.07830941     0.75100
O1713       O  0.84671572  0.83894982  0.21682192    -0.38400
O1714       O  0.78411406  0.82646406  0.19832783    -0.38300
O1715       O  0.92205067  0.83804571  0.06923853    -0.39000
O1716       O  0.86949032  0.87976765  0.05986826    -0.39100
C1717       C  0.62363335  0.64016130  0.96843710    -0.11400
C1718       C  0.63868288  0.60432276  0.95580643     0.05600
C1719       C  0.68253175  0.59556471  0.95623992    -0.06700
C1720       C  0.71106009  0.62590096  0.96376704    -0.07400
C1721       C  0.69637903  0.66473261  0.97196906    -0.02000
C1722       C  0.65230340  0.66945397  0.97828172     0.04900
N1723       N  0.63631674  0.70438002  0.99341851     0.67400
H1724       H  0.58952605  0.64521191  0.97077602     0.16300
H1725       H  0.74450999  0.61925004  0.96057783     0.16000
N1726       N  0.69877417  0.55740966  0.94654324     0.75100
O1727       O  0.60335456  0.72247282  0.98380658    -0.38400
O1728       O  0.65141585  0.71357625  0.01864544    -0.38300
O1729       O  0.71276982  0.55391501  0.92023296    -0.39000
O1730       O  0.70724319  0.53031432  0.96573820    -0.39100
C1731       C  0.82188707  0.64299125  0.89440267    -0.11400
C1732       C  0.82667198  0.68364000  0.90368683     0.05600
C1733       C  0.86557399  0.69237817  0.91926058    -0.06700
C1734       C  0.89860854  0.66272798  0.92239294    -0.07400
C1735       C  0.89338468  0.62244616  0.91290238    -0.02000
C1736       C  0.85381062  0.61295548  0.89923498     0.04900
N1737       N  0.84522998  0.57251103  0.89004102     0.67400
H1738       H  0.79205895  0.63326273  0.88463269     0.16300
H1739       H  0.92779294  0.67078460  0.93397968     0.16000
N1740       N  0.87082270  0.72987839  0.93458817     0.75100
O1741       O  0.82935483  0.54765187  0.90848839    -0.38400
O1742       O  0.84593802  0.56397259  0.86259734    -0.38300
O1743       O  0.85496442  0.73348006  0.96037573    -0.39000
O1744       O  0.90055114  0.75346441  0.92681390    -0.39100
C1745       C  0.63573552  0.85903968  0.88509432    -0.11400
C1746       C  0.62695648  0.87456486  0.91373027     0.05600
C1747       C  0.64797500  0.85507826  0.93786119    -0.06700
C1748       C  0.67631278  0.82200690  0.93302868    -0.07400
C1749       C  0.68499590  0.80517265  0.90427390    -0.02000
C1750       C  0.66437815  0.82617918  0.87991001     0.04900
N1751       N  0.67209889  0.81627928  0.84930889     0.67400
H1752       H  0.62104340  0.87366982  0.86586693     0.16300
H1753       H  0.69258445  0.81059496  0.95266448     0.16000
N1754       N  0.64046166  0.86782821  0.96783435     0.75100
O1755       O  0.64050581  0.81289687  0.83186031    -0.38400
O1756       O  0.70853832  0.82243785  0.83814913    -0.38300
O1757       O  0.61331632  0.84930952  0.98367033    -0.39000
O1758       O  0.66618439  0.89195657  0.98007078    -0.39100
C1759       C  0.84681600  0.86169304  0.91124549    -0.11400
C1760       C  0.84753351  0.84853229  0.88159968     0.05600
C1761       C  0.87628689  0.86487609  0.86098321    -0.06700
C1762       C  0.90489903  0.89413164  0.87055845    -0.07400
C1763       C  0.90512679  0.90666678  0.90062567    -0.02000
C1764       C  0.87513639  0.89078039  0.92095053     0.04900
N1765       N  0.87426990  0.90218078  0.95170415     0.67400
H1766       H  0.82454422  0.84839424  0.92706899     0.16300
H1767       H  0.92740030  0.90658094  0.85453025     0.16000
N1768       N  0.87692428  0.85178349  0.83061762     0.75100
O1769       O  0.85030584  0.93088312  0.95968441    -0.38400
O1770       O  0.88926215  0.87828977  0.97126661    -0.38300
O1771       O  0.86247034  0.87475435  0.81027183    -0.39000
O1772       O  0.89883960  0.82120662  0.82362235    -0.39100
C1773       C  0.55774089  0.57522443  0.75901044    -0.11400
C1774       C  0.54181545  0.54273186  0.74230063     0.05600
C1775       C  0.03482233  0.99865040  0.76358696    -0.06700
C1776       C  0.03499309  0.99620335  0.79474623    -0.07400
C1777       C  0.54318729  0.53891820  0.80586764    -0.02000
C1778       C  0.55831276  0.57373633  0.79059091     0.04900
N1779       N  0.57531882  0.60725803  0.80660809     0.67400
H1780       H  0.57027267  0.60156453  0.74743548     0.16300
H1781       H  0.02829507  0.96705913  0.80497095     0.16000
N1782       N  0.02399758  0.96328147  0.74709950     0.75100
O1783       O  0.61474501  0.60825570  0.81263884    -0.38400
O1784       O  0.55301386  0.63882889  0.80955892    -0.38300
O1785       O  0.04890183  0.93317285  0.74758021    -0.39000
O1786       O  0.98610037  0.95889144  0.73799087    -0.39100
C1787       C  0.73531701  0.68001662  0.75375898    -0.11400
C1788       C  0.72069267  0.71593011  0.73990116     0.05600
C1789       C  0.70166210  0.74566469  0.75817216    -0.06700
C1790       C  0.69926966  0.73991254  0.78914070    -0.07400
C1791       C  0.71504725  0.70484630  0.80337609    -0.02000
C1792       C  0.73247087  0.67413467  0.78504294     0.04900
N1793       N  0.74685293  0.63658527  0.79764412     0.67400
H1794       H  0.74957897  0.65647704  0.74031546     0.16300
H1795       H  0.68614362  0.76416221  0.80206769     0.16000
N1796       N  0.68452921  0.78232240  0.74581283     0.75100
O1797       O  0.71991407  0.61166697  0.80781452    -0.38400
O1798       O  0.78526050  0.62566416  0.79431786    -0.38300
O1799       O  0.64487136  0.78497638  0.74085286    -0.39000
O1800       O  0.70691113  0.81404461  0.74594401    -0.39100
C1801       C  0.91849381  0.64755765  0.63951903    -0.11400
C1802       C  0.87778730  0.63725009  0.62822629     0.05600
C1803       C  0.87192862  0.59648938  0.61987813    -0.06700
C1804       C  0.90541655  0.56775473  0.62274157    -0.07400
C1805       C  0.94538273  0.57682103  0.63599629    -0.02000
C1806       C  0.95190842  0.61836255  0.64340524     0.04900
N1807       N  0.99263320  0.63233664  0.65358622     0.67400
H1808       H  0.92446158  0.67867373  0.64563087     0.16300
H1809       H  0.89962540  0.53755240  0.61454874     0.16000
N1810       N  0.83187262  0.58351627  0.60807177     0.75100
O1811       O  0.99523763  0.65021427  0.67834299    -0.38400
O1812       O  0.02318355  0.63532629  0.63529495    -0.38300
O1813       O  0.82601756  0.58380097  0.58013573    -0.39000
O1814       O  0.80667340  0.56385672  0.62470720    -0.39100
C1815       C  0.59177352  0.87293573  0.61451469    -0.11400
C1816       C  0.62967118  0.87120130  0.63166903     0.05600
C1817       C  0.63839566  0.90543671  0.64970070    -0.06700
C1818       C  0.61055566  0.93940656  0.64988669    -0.07400
C1819       C  0.57091748  0.94018633  0.63457045    -0.02000
C1820       C  0.56286989  0.90629042  0.61574774     0.04900
N1821       N  0.52658486  0.90593460  0.59622460     0.67400
H1822       H  0.58431460  0.84807586  0.59979214     0.16300
H1823       H  0.62132451  0.96568062  0.66177938     0.16000
N1824       N  0.67584083  0.90670997  0.66805539     0.75100
O1825       O  0.52980529  0.92195190  0.57059511    -0.38400
O1826       O  0.49236733  0.37533845  0.61119945    -0.38300
O1827       O  0.70726848  0.92808459  0.66006142    -0.39000
O1828       O  0.67405587  0.89346610  0.69459548    -0.39100
C1829       C  0.87101653  0.85097361  0.68066559    -0.11400
C1830       C  0.84927950  0.85400535  0.65329527     0.05600
C1831       C  0.84899772  0.89038263  0.63702176    -0.06700
C1832       C  0.87237547  0.92283295  0.64745672    -0.07400
C1833       C  0.89625605  0.91936497  0.67392560    -0.02000
C1834       C  0.89480462  0.88358159  0.69104847     0.04900
N1835       N  0.91769964  0.88011933  0.71865323     0.67400
H1836       H  0.86947162  0.82333288  0.69385679     0.16300
H1837       H  0.87401448  0.95010653  0.63387715     0.16000
N1838       N  0.82465154  0.89488340  0.61011583     0.75100
O1839       O  0.90089032  0.89298563  0.74239306    -0.38400
O1840       O  0.95098691  0.85853023  0.72017425    -0.38300
O1841       O  0.78696515  0.90851222  0.61138708    -0.39000
O1842       O  0.84327529  0.89293459  0.58515173    -0.39100
C1843       C  0.60978314  0.64829904  0.57584934    -0.11400
C1844       C  0.64584019  0.63867596  0.59330169     0.05600
C1845       C  0.65550473  0.59763261  0.59900401    -0.06700
C1846       C  0.62671112  0.56796375  0.59063392    -0.07400
C1847       C  0.58756896  0.57792213  0.57673019    -0.02000
C1848       C  0.58122410  0.61827750  0.56696087     0.04900
N1849       N  0.54525817  0.62941264  0.54885943     0.67400
H1850       H  0.60306857  0.67938084  0.56949886     0.16300
H1851       H  0.63408671  0.53747663  0.59780558     0.16000
N1852       N  0.69382920  0.58519482  0.61396487     0.75100
O1853       O  0.51989050  0.65657535  0.55766439    -0.38400
O1854       O  0.54477400  0.61935471  0.52171961    -0.38300
O1855       O  0.69293529  0.57773220  0.64169940    -0.39000
O1856       O  0.72483949  0.57256158  0.59861549    -0.39100
loop_ 
_geom_bond_atom_site_label_1 
_geom_bond_atom_site_label_2 
_geom_bond_distance 
_geom_bond_site_symmetry_2 
_ccdc_geom_bond_type 
Zn1           O5   1.995       .  S
Zn1           O6   1.989       .  S
Zn1          O10   2.039       .  S
Zn1          O17   2.149       .  S
Zn2           O5   1.992       .  S
Zn2           O7   2.117       .  S
Zn2           O9   2.018       .  S
Zn2          O13   2.097       .  S
Zn3           O5   1.990       .  S
Zn3           O8   2.072       .  S
Zn3          O11   2.131       .  S
Zn3          O14   1.995       .  S
Zn4           O5   1.953       .  S
Zn4          O12   1.924       .  S
Zn4          O15   1.994       .  S
Zn4          O16   2.063       .  S
O6           C18   1.277       .  A
O7           C19   1.282       .  A
O8           C20   1.282       .  A
O9           C18   1.280       .  A
O10          C20   1.275       .  A
O11          C19   1.283       .  A
O12          C21   1.267       .  A
O13          C22   1.283       .  A
O14          C21   1.275       .  A
O15          C22   1.270       .  A
O16          C23   1.273       .  A
O17          C23   1.284       .  A
C18         C452   1.472       .  S
C19         C410   1.535       .  S
C20         C180   1.487       .  S
C21         C438   1.453       .  S
C22         C396   1.507       .  S
C23         C424   1.537       .  S
C24          C27   1.571       .  S
C24         C427   1.586       .  S
C24         C954   1.518   1_455  S
C24         C492   1.534       .  S
C25          C30   1.556       .  S
C25         C413   1.590       .  S
C25         C493   1.534   1_545  S
C25         C959   1.544       .  S
C26         C952   1.522       .  S
C26          C34   1.358       .  A
C26          C29   1.398       .  A
C27          C38   1.395       .  A
C27        C1422   1.441       .  A
C28         C488   1.536   1_545  S
C28          C42   1.374       .  A
C28          C31   1.407   1_455  A
C29         C489   1.532       .  S
C29          C32   1.369       .  A
C30          C36   1.395       .  A
C30        C1419   1.440       .  A
C31         C953   1.534       .  S
C31          C39   1.373   1_655  A
C32          N33   1.351       .  A
C32          H45   1.082       .  S
N33          C34   1.353       .  A
N33         C441   1.410       .  S
C34          H35   1.082       .  S
C36         N965   1.352       .  A
C36          H46   1.082       .  S
N37         C964   1.350       .  A
N37         C502   1.350       .  A
N37         C382   1.444       .  S
C38         N501   1.354       .  A
C38          H44   1.080       .  S
C39          N40   1.357       .  A
C39          H41   1.078       .  S
N40          C42   1.358       .  A
N40         C455   1.450       .  S
C42          H43   1.079   1_545  S
Zn47         O51   1.977   1_565  S
Zn47         O52   1.983   1_565  S
Zn47         O63   2.024       .  S
Zn47        O520   2.152       .  S
Zn48         O51   1.983       .  S
Zn48         O53   2.059       .  S
Zn48         O55   2.005       .  S
Zn48        O987   2.117   1_455  S
Zn49        O515   1.961       .  S
Zn49         O54   2.059       .  S
Zn49         O57   2.002       .  S
Zn49        O988   1.929   1_455  S
Zn50        O979   1.988       .  S
Zn50         O61   2.114       .  S
Zn50         O62   2.099   1_545  S
Zn50        O522   1.993   1_545  S
O51        Zn513   1.945   1_545  S
O51        Zn978   1.983   1_455  S
O52          C64   1.275       .  A
O53          C65   1.277       .  A
O54          C66   1.274       .  A
O55          C64   1.279       .  A
O56        Zn511   2.143       .  S
O56          C66   1.284       .  A
O57         C529   1.271       .  A
O58        Zn514   1.996       .  S
O58          C67   1.276       .  A
O59        Zn976   2.101       .  S
O59          C68   1.278       .  A
O60        Zn977   1.931       .  S
O60          C67   1.267       .  A
O61          C68   1.280       .  A
O62         C997   1.284   1_556  A
O63          C69   1.276   1_556  A
C64         C326   1.450       .  S
C65         O521   1.272   1_545  A
C65         C385   1.494       .  S
C66         C354   1.532       .  S
C67         C371   1.439       .  S
C68         C343   1.526       .  S
C69         O990   1.281   1_464  A
C69        C1042   1.482       .  S
C70          C72   1.515       .  S
C70          C74   1.539       .  S
C70          C73   1.558       .  S
C70         C340   1.579       .  S
C71          C75   1.532       .  S
C71          C77   1.549       .  S
C71          C76   1.568       .  S
C71         C357   1.602       .  S
C72          C80   1.360       .  A
C72          C75   1.390       .  A
C73          C84   1.389       .  A
C73          C76   1.430       .  A
C74          C88   1.368       .  A
C74          C77   1.414       .  A
C75          C78   1.362       .  A
C76          C82   1.386       .  A
C77          C85   1.384       .  A
C78          N79   1.359       .  A
C78          H91   1.078       .  S
N79          C80   1.360       .  A
N79         C368   1.437       .  S
C80          H81   1.079       .  S
C82          N83   1.358       .  A
C82          H92   1.074       .  S
N83          C84   1.352       .  A
N83         C399   1.451       .  S
C84          H90   1.082       .  S
C85          N86   1.356       .  A
C85          H87   1.082       .  S
N86          C88   1.348       .  A
N86         C329   1.440       .  S
C88          H89   1.082       .  S
Zn93        O561   1.969       .  S
Zn93         O98   2.121       .  S
Zn93        O102   2.083       .  S
Zn93       O1037   2.030       .  S
Zn94         O97   2.010   1_565  S
Zn94         O99   1.999   1_565  S
Zn94        O105   2.097       .  S
Zn94        O565   2.161       .  S
Zn95         O97   1.984       .  S
Zn95        O100   2.070       .  S
Zn95        O103   1.995       .  S
Zn95       O1034   2.099       .  S
Zn96       O1025   1.988   1_545  S
Zn96        O104   2.140       .  S
Zn96        O107   2.050       .  S
Zn96        O572   1.983   1_545  S
O97        Zn557   1.970   1_545  S
O97       Zn1024   1.989       .  S
O98         C110   1.282       .  A
O99         C111   1.275       .  A
O100        C112   1.280       .  A
O101       Zn558   2.132       .  S
O101        C110   1.283       .  A
O102        C576   1.283       .  A
O103        C111   1.278       .  A
O104        C113   1.284       .  A
O105        C114   1.284       .  A
O106      Zn1023   2.106       .  S
O106        C113   1.279       .  A
O107       C1042   1.281   1_545  A
O108       Zn560   1.992       .  S
O108        C115   1.275       .  A
O109      Zn1021   1.986   1_455  S
O109        C115   1.275       .  A
C110        C312   1.541       .  S
C111        C301   1.463       .  S
C112        O566   1.275   1_545  A
C112        C256   1.500       .  S
C113        C273   1.532       .  S
C114       O1035   1.283       .  A
C114        C997   1.505       .  S
C115        C287   1.472       .  S
C116        C118   1.535       .  S
C116        C120   1.526       .  S
C116        C119   1.557       .  S
C116        C270   1.592       .  S
C117        C121   1.541       .  S
C117        C123   1.555       .  S
C117        C122   1.571       .  S
C117        C315   1.615       .  S
C118        C126   1.370       .  A
C118        C121   1.405       .  A
C119        C130   1.391       .  A
C119        C122   1.432       .  A
C120        C134   1.367       .  A
C120        C123   1.400       .  A
C121        C124   1.367       .  A
C122        C128   1.388       .  A
C123        C131   1.382       .  A
C124        N125   1.360       .  A
C124        H137   1.082       .  S
N125        C126   1.357       .  A
N125        C284   1.439       .  S
C126        H127   1.076       .  S
C128        N129   1.358       .  A
C128        H138   1.076       .  S
N129        C130   1.357       .  A
N129        C245   1.458       .  S
C130        H136   1.082       .  S
C131        N132   1.365       .  A
C131        H133   1.078       .  S
N132        C134   1.354       .  A
N132        C298   1.449       .  S
C134        H135   1.078       .  S
C139        C142   1.558       .  S
C139        C228   1.589       .  S
C139       C1069   1.527       .  S
C139        C607   1.539       .  S
C140        C145   1.566   1_545  S
C140        C186   1.588       .  S
C140        C608   1.527       .  S
C140       C1074   1.524       .  S
C141       C1067   1.532       .  S
C141        C149   1.365   1_655  A
C141        C144   1.409   1_655  A
C142        C153   1.391       .  A
C142       C1537   1.438       .  A
C143        C603   1.533   1_545  S
C143        C157   1.375       .  A
C143        C146   1.391       .  A
C144        C604   1.542       .  S
C144        C147   1.371       .  A
C145        C151   1.393   1_565  A
C145       C1534   1.440       .  A
C146       C1068   1.526       .  S
C146        C154   1.364       .  A
C147        N148   1.356       .  A
C147        H160   1.081       .  S
N148        C149   1.352       .  A
N148        C203   1.419       .  S
C149        H150   1.081   1_455  S
C151       N1080   1.352   1_545  A
C151        H161   1.081       .  S
N152       C1079   1.359       .  A
N152        C617   1.357       .  A
N152        C259   1.465       .  S
C153        N616   1.350       .  A
C153        H159   1.082       .  S
C154        N155   1.359       .  A
C154        H156   1.079       .  S
N155        C157   1.363       .  A
N155        C214   1.445       .  S
C157        H158   1.080   1_545  S
Zn162       O166   1.959       .  S
Zn162       O167   2.104       .  S
Zn162       O171   1.996       .  S
Zn162       O178   2.040       .  S
Zn163       O166   1.993       .  S
Zn163       O168   2.044       .  S
Zn163       O170   2.143       .  S
Zn163       O174   1.991       .  S
Zn164       O166   1.988       .  S
Zn164       O169   2.000       .  S
Zn164       O172   2.067       .  S
Zn164       O175   2.138       .  S
Zn165       O166   1.966       .  S
Zn165       O173   2.078       .  S
Zn165       O176   1.985       .  S
Zn165       O177   2.042       .  S
O167        C179   1.280       .  A
O168        C180   1.277       .  A
O169        C181   1.277       .  A
O170        C179   1.286       .  A
O171        C181   1.277       .  A
O172        C180   1.282       .  A
O173        C182   1.275       .  A
O174        C183   1.276       .  A
O175        C182   1.284       .  A
O176        C183   1.275       .  A
O177        C184   1.278       .  A
O178        C184   1.278       .  A
C179        C231   1.531       .  S
C181        C200   1.467       .  S
C182        C189   1.540       .  S
C183        C217   1.462       .  S
C184        C242   1.497       .  S
C185        C186   1.415       .  A
C185        C190   1.422       .  A
C185        H192   1.078       .  S
C186        C187   1.432       .  A
C187        C188   1.424       .  A
C187        N194   1.431       .  S
C188        C189   1.410       .  A
C188        H193   1.083       .  S
C189        C190   1.424       .  A
C190        N191   1.429       .  S
N191        O195   1.262       .  A
N191        O196   1.262       .  A
N194        O198   1.262       .  A
N194       O1125   1.261       .  A
O197       N1122   1.262       .  A
C199        C200   1.407       .  A
C199        C204   1.394       .  A
C199        H206   1.084       .  S
C200        C201   1.412       .  A
C201        C202   1.392       .  A
C201        N208   1.430       .  S
C202        C203   1.398       .  A
C202        H207   1.084       .  S
C203        C204   1.398       .  A
C204        N205   1.427       .  S
N205        O209   1.261       .  A
N205        O210   1.262       .  A
N208        O212   1.262       .  A
N208        O211   1.262       .  A
C213        C214   1.405       .  A
C213        C218   1.392       .  A
C213        H220   1.080       .  S
C214        C215   1.415       .  A
C215        C216   1.394       .  A
C215        N222   1.429       .  S
C216        C217   1.396       .  A
C216        H221   1.084       .  S
C217        C218   1.410       .  A
C218        N219   1.430       .  S
N219        O223   1.262       .  A
N219        O224   1.262       .  A
N222        O226   1.263       .  A
N222        O225   1.262       .  A
C227        C228   1.419       .  A
C227        C232   1.424       .  A
C227        H234   1.081       .  S
C228        C229   1.433       .  A
C229        C230   1.428       .  A
C229        N236   1.434       .  S
C230        C231   1.409       .  A
C230        H235   1.083       .  S
C231        C232   1.414       .  A
C232        N233   1.427       .  S
N233        O237   1.261       .  A
N233        O238   1.262       .  A
N236        O240   1.262       .  A
N236       O1167   1.262       .  A
O239       N1164   1.262       .  A
C241        C242   1.408       .  A
C241        C246   1.410       .  A
C241        H248   1.084       .  S
C242        C243   1.413       .  A
C243        C244   1.403       .  A
C243        N250   1.430       .  S
C244        C245   1.408       .  A
C244        H249   1.076       .  S
C245        C246   1.416       .  A
C246        N247   1.428       .  S
N247        O251   1.262       .  A
N247        O252   1.262       .  A
N250        O254   1.262       .  A
N250        O253   1.262       .  A
C255        C256   1.407       .  A
C255        C260   1.413       .  A
C255        H262   1.084       .  S
C256       C1649   1.412   1_545  A
C257        C258   1.403       .  A
C257       C1648   1.421       .  A
C257        N264   1.429       .  S
C258       C1651   1.404       .  A
C258        H263   1.083       .  S
C259        C260   1.421       .  A
C259       C1650   1.412   1_545  A
C260        N261   1.428       .  S
N261        O265   1.262       .  A
N261        O266   1.262       .  A
N264        O268   1.262       .  A
N264        O267   1.262       .  A
C269        C270   1.419       .  A
C269        C274   1.422       .  A
C269        H276   1.079       .  S
C270        C271   1.433       .  A
C271        C272   1.428       .  A
C271        N278   1.430       .  S
C272        C273   1.410       .  A
C272        H277   1.083       .  S
C273        C274   1.414       .  A
C274        N275   1.428       .  S
N275        O279   1.262       .  A
N275        O280   1.262       .  A
N278        O282   1.262       .  A
N278        O281   1.262       .  A
C283        C284   1.405       .  A
C283        C288   1.390       .  A
C283        H290   1.081       .  S
C284        C285   1.414       .  A
C285        C286   1.393       .  A
C285        N292   1.430       .  S
C286        C287   1.403       .  A
C286        H291   1.084       .  S
C287        C288   1.411       .  A
C288        N289   1.430       .  S
N289        O293   1.262       .  A
N289        O294   1.262       .  A
N292        O296   1.263       .  A
N292        O295   1.262       .  A
C297        C298   1.401       .  A
C297        C302   1.388       .  A
C297        H304   1.080       .  S
C298        C299   1.418       .  A
C299        C300   1.400       .  A
C299        N306   1.432       .  S
C300        C301   1.398       .  A
C300        H305   1.083       .  S
C301        C302   1.407       .  A
C302        N303   1.424       .  S
N303        O307   1.261       .  A
N303        O308   1.261       .  A
N306        O310   1.263       .  A
N306        O309   1.261       .  A
C311        C312   1.409       .  A
C311        C316   1.434       .  A
C311        H318   1.083       .  S
C312        C313   1.414       .  A
C313        C314   1.424       .  A
C313        N320   1.428       .  S
C314        C315   1.426       .  A
C314        H319   1.079       .  S
C315        C316   1.443       .  A
C316        N317   1.438       .  S
N317        O321   1.263       .  A
N317        O322   1.260       .  A
N320        O324   1.262       .  A
N320        O323   1.262       .  A
C325        C326   1.399       .  A
C325        C330   1.396       .  A
C325        H332   1.084       .  S
C326        C327   1.399       .  A
C327        C328   1.386       .  A
C327        N334   1.430       .  S
C328        C329   1.413       .  A
C328        H333   1.080       .  S
C329        C330   1.411       .  A
C330        N331   1.430       .  S
N331        O335   1.262       .  A
N331        O336   1.262   1_556  A
N334        O338   1.262       .  A
N334        O337   1.262       .  A
C339        C340   1.413       .  A
C339        C344   1.416       .  A
C339        H346   1.081       .  S
C340        C341   1.430       .  A
C341        C342   1.426       .  A
C341        N348   1.431       .  S
C342        C343   1.410       .  A
C342        H347   1.083       .  S
C343        C344   1.413       .  A
C344        N345   1.423       .  S
N345        O349   1.261       .  A
N345        O350   1.262       .  A
N348        O352   1.262       .  A
N348        O351   1.262       .  A
C353        C354   1.408       .  A
C353        C358   1.423       .  A
C353        H360   1.084       .  S
C354        C355   1.411       .  A
C355        C356   1.421       .  A
C355        N362   1.428       .  S
C356        C357   1.427       .  A
C356        H361   1.077       .  S
C357        C358   1.440       .  A
C358        N359   1.433       .  S
N359        O363   1.263       .  A
N359        O364   1.259       .  A
N362        O366   1.261       .  A
N362        O365   1.262       .  A
C367        C368   1.407       .  A
C367        C372   1.382       .  A
C367        H374   1.078       .  S
C368        C369   1.418       .  A
C369        C370   1.391       .  A
C369        N376   1.431       .  S
C370        C371   1.393       .  A
C370        H375   1.085       .  S
C371        C372   1.401       .  A
C372        N373   1.431       .  S
N373        O377   1.262       .  A
N373        O378   1.262       .  A
N376        O380   1.262       .  A
N376        O379   1.263       .  A
C381        C382   1.405       .  A
C381        C386   1.410       .  A
C381        H388   1.083       .  S
C382       C1775   1.410   1_545  A
C383        C384   1.398       .  A
C383       C1774   1.405       .  A
C383        N390   1.430       .  S
C384       C1777   1.410       .  A
C384        H389   1.084       .  S
C385        C386   1.416       .  A
C385       C1776   1.407   1_545  A
C386        N387   1.429       .  S
N387        O391   1.262       .  A
N387        O392   1.262       .  A
N390        O394   1.262       .  A
N390        O393   1.262       .  A
C395        C396   1.410       .  A
C395        C400   1.413       .  A
C395        H402   1.083       .  S
C396        C397   1.423       .  A
C397        C398   1.400       .  A
C397        N404   1.430       .  S
C398        C399   1.400       .  A
C398        H403   1.081       .  S
C399        C400   1.413       .  A
C400        N401   1.428       .  S
N401        O405   1.262       .  A
N401        O406   1.262       .  A
N404        O408   1.262       .  A
N404        O407   1.262       .  A
C409        C410   1.414       .  A
C409        C414   1.431       .  A
C409        H416   1.083       .  S
C410        C411   1.414       .  A
C411        C412   1.419       .  A
C411        N418   1.427       .  S
C412        C413   1.418       .  A
C412        H417   1.081       .  S
C413        C414   1.431       .  A
C414        N415   1.430       .  S
N415        O419   1.262       .  A
N415        O420   1.262       .  A
N418        O422   1.262       .  A
N418        O421   1.262       .  A
C423        C424   1.410       .  A
C423        C428   1.427       .  A
C423        H430   1.083       .  S
C424        C425   1.423       .  A
C425        C426   1.419       .  A
C425        N432   1.429       .  S
C426        C427   1.413       .  A
C426        H431   1.079       .  S
C427        C428   1.432       .  A
C428        N429   1.431       .  S
N429        O433   1.262       .  A
N429        O898   1.262   1_455  A
N432        O436   1.262       .  A
N432        O435   1.262       .  A
O434        N893   1.262   1_655  A
C437        C438   1.409       .  A
C437        C442   1.389       .  A
C437        H444   1.084       .  S
C438        C439   1.406       .  A
C439        C440   1.383       .  A
C439        N446   1.430       .  S
C440        C441   1.399       .  A
C440        H445   1.084       .  S
C441        C442   1.393       .  A
C442        N443   1.428       .  S
N443        O447   1.262       .  A
N443        O448   1.262       .  A
N446        O450   1.262       .  A
N446        O449   1.262       .  A
C451        C452   1.402       .  A
C451        C456   1.396       .  A
C451        H458   1.083       .  S
C452        C453   1.408       .  A
C453        C454   1.392       .  A
C453        N460   1.429       .  S
C454        C455   1.411       .  A
C454        H459   1.078       .  S
C455        C456   1.417       .  A
C456        N457   1.432       .  S
N457        O461   1.263       .  A
N457        O462   1.261       .  A
N460        O464   1.262       .  A
N460        O463   1.262       .  A
Zn465       O469   1.984       .  S
Zn465       O470   1.986       .  S
Zn465       O474   2.045       .  S
Zn465       O481   2.163       .  S
Zn466       O469   1.979       .  S
Zn466       O471   2.093       .  S
Zn466       O473   1.985       .  S
Zn466       O477   2.067       .  S
Zn467       O469   1.993       .  S
Zn467       O472   2.093       .  S
Zn467       O475   2.131       .  S
Zn467       O478   2.002       .  S
Zn468       O469   1.949       .  S
Zn468       O476   1.930       .  S
Zn468       O479   2.006       .  S
Zn468       O480   2.075       .  S
O470        C482   1.278       .  A
O471        C483   1.278       .  A
O472        C484   1.282       .  A
O473        C482   1.276       .  A
O474        C484   1.278       .  A
O475        C483   1.283       .  A
O476        C485   1.268       .  A
O477        C486   1.279       .  A
O478        C485   1.277       .  A
O479        C486   1.272       .  A
O480        C487   1.275       .  A
O481        C487   1.287       .  A
C482        C916   1.471       .  S
C483        C874   1.527       .  S
C484        C644   1.495       .  S
C485        C902   1.439       .  S
C486        C860   1.501       .  S
C487        C888   1.543       .  S
C488       C1418   1.524   1_455  S
C488        C491   1.569   1_565  S
C488        C891   1.593       .  S
C489       C1423   1.532       .  S
C489        C494   1.557       .  S
C489        C877   1.586       .  S
C490       C1416   1.520       .  S
C490        C498   1.362       .  A
C490        C493   1.398       .  A
C491        C502   1.388       .  A
C491        C958   1.445       .  A
C492        C506   1.371       .  A
C492        C495   1.405       .  A
C493        C496   1.366       .  A
C494        C955   1.442       .  A
C494        C500   1.390       .  A
C495       C1417   1.537   1_455  S
C495        C503   1.374       .  A
C496        N497   1.350       .  A
C496        H509   1.081       .  S
N497        C498   1.352       .  A
N497        C905   1.409       .  S
C498        H499   1.082       .  S
C500       N1429   1.348       .  A
C500        H510   1.082       .  S
N501       C1428   1.351       .  A
N501        C846   1.454       .  S
C502        H508   1.079   1_545  S
C503        N504   1.358       .  A
C503        H505   1.080       .  S
N504        C506   1.356       .  A
N504        C919   1.444       .  S
C506        H507   1.081       .  S
Zn511       O515   1.994       .  S
Zn511       O516   1.983       .  S
Zn511       O527   2.067       .  S
Zn512       O515   1.990       .  S
Zn512       O517   2.099       .  S
Zn512       O519   2.015       .  S
Zn512      O1451   2.123   1_455  S
Zn513       O518   2.080       .  S
Zn513       O521   1.986       .  S
Zn513      O1452   1.937   1_455  S
Zn514      O1443   1.988       .  S
Zn514       O525   2.108       .  S
Zn514       O526   2.096       .  S
O515      Zn1442   1.984   1_455  S
O516        C528   1.274       .  A
O517        C529   1.280       .  A
O518        C530   1.276       .  A
O519        C528   1.281       .  A
O520        C530   1.284       .  A
O522        C531   1.277       .  A
O523      Zn1440   2.121       .  S
O523        C532   1.281       .  A
O524      Zn1441   1.937       .  S
O524        C531   1.268       .  A
O525        C532   1.281       .  A
O526       C1461   1.282   1_556  A
O527        C533   1.279   1_456  A
C528        C790   1.445       .  S
C529        C849   1.509       .  S
C530        C818   1.539       .  S
C531        C835   1.454       .  S
C532        C807   1.528       .  S
C533       O1454   1.283   1_554  A
C533       C1506   1.503       .  S
C534        C536   1.523       .  S
C534        C538   1.538       .  S
C534        C537   1.560       .  S
C534        C804   1.587       .  S
C535        C539   1.521       .  S
C535        C541   1.551       .  S
C535        C540   1.569       .  S
C535        C821   1.612       .  S
C536        C544   1.370       .  A
C536        C539   1.393       .  A
C537        C548   1.390       .  A
C537        C540   1.435       .  A
C538        C552   1.372       .  A
C538        C541   1.421       .  A
C539        C542   1.352       .  A
C540        C546   1.381       .  A
C541        C549   1.383       .  A
C542        N543   1.353       .  A
C542        H555   1.077       .  S
N543        C544   1.363       .  A
N543        C832   1.432       .  S
C544        H545   1.080       .  S
C546        N547   1.350       .  A
C546        H556   1.095       .  S
N547        C548   1.351       .  A
N547        C863   1.444       .  S
C548        H554   1.079       .  S
C549        N550   1.352       .  A
C549        H551   1.084       .  S
N550        C552   1.346       .  A
N550        C793   1.429       .  S
C552        H553   1.084       .  S
Zn557       O562   2.084       .  S
Zn557       O566   2.028       .  S
Zn557      O1501   1.988       .  S
Zn558       O561   2.004       .  S
Zn558       O563   1.993       .  S
Zn558       O569   2.075       .  S
Zn559       O561   1.960       .  S
Zn559       O564   2.033       .  S
Zn559       O567   1.982       .  S
Zn559      O1498   2.103       .  S
Zn560      O1489   1.994   1_455  S
Zn560       O568   2.137       .  S
Zn560       O571   2.075       .  S
O561      Zn1488   1.985       .  S
O562        C574   1.278       .  A
O563        C575   1.275       .  A
O564        C576   1.277       .  A
O565        C574   1.288       .  A
O567        C575   1.275       .  A
O568        C577   1.283       .  A
O569        C578   1.280       .  A
O570      Zn1487   2.109   1_455  S
O570        C577   1.279       .  A
O571       C1506   1.282   1_455  A
O572        C579   1.272       .  A
O573      Zn1485   2.015       .  S
O573        C579   1.281       .  A
C574        C776   1.535       .  S
C575        C765   1.457       .  S
C576        C720   1.505       .  S
C577        C737   1.535       .  S
C578       O1499   1.280       .  A
C578       C1461   1.491       .  S
C579        C751   1.473       .  S
C580        C582   1.551       .  S
C580        C584   1.539       .  S
C580        C583   1.549       .  S
C580        C734   1.594       .  S
C581        C585   1.533       .  S
C581        C587   1.550       .  S
C581        C586   1.545       .  S
C581        C779   1.592       .  S
C582        C590   1.377       .  A
C582        C585   1.396       .  A
C583        C594   1.385       .  A
C583        C586   1.415       .  A
C584        C598   1.375       .  A
C584        C587   1.427       .  A
C585        C588   1.364       .  A
C586        C592   1.383       .  A
C587        C595   1.381       .  A
C588        N589   1.363       .  A
C588        H601   1.081       .  S
N589        C590   1.366       .  A
N589        C748   1.453       .  S
C590        H591   1.076       .  S
C592        N593   1.355       .  A
C592        H602   1.083       .  S
N593        C594   1.359       .  A
N593        C709   1.443       .  S
C594        H600   1.082       .  S
C595        N596   1.343       .  A
C595        H597   1.079       .  S
N596        C598   1.341       .  A
N596        C762   1.414       .  S
C598        H599   1.081       .  S
C603       C1533   1.542       .  S
C603        C606   1.567   1_565  S
C603        C692   1.594       .  S
C604       C1538   1.533   1_455  S
C604        C609   1.566   1_455  S
C604        C650   1.595       .  S
C605       C1531   1.532   1_455  S
C605        C613   1.370       .  A
C605        C608   1.392   1_565  A
C606        C617   1.388       .  A
C606       C1073   1.437       .  A
C607        C621   1.367       .  A
C607        C610   1.406       .  A
C608        C611   1.367       .  A
C609       C1070   1.437       .  A
C609        C615   1.399       .  A
C610       C1532   1.523       .  S
C610        C618   1.360       .  A
C611        N612   1.356   1_545  A
C611        H624   1.077       .  S
N612        C613   1.364       .  A
N612        C667   1.442       .  S
C613        H614   1.083       .  S
C615       N1544   1.355       .  A
C615        H625   1.081   1_655  S
N616       C1543   1.354       .  A
N616        C723   1.446       .  S
C617        H623   1.077   1_545  S
C618        N619   1.349       .  A
C618        H620   1.082       .  S
N619        C621   1.355       .  A
N619        C678   1.410       .  S
C621        H622   1.081       .  S
Zn626       O630   1.975       .  S
Zn626       O631   2.116       .  S
Zn626       O635   1.982       .  S
Zn626       O642   2.077       .  S
Zn627       O630   2.001       .  S
Zn627       O632   2.081       .  S
Zn627       O634   2.131       .  S
Zn627       O638   1.997       .  S
Zn628       O630   1.998       .  S
Zn628       O633   1.989       .  S
Zn628       O636   2.059       .  S
Zn628       O639   2.163       .  S
Zn629       O630   1.948       .  S
Zn629       O637   2.091       .  S
Zn629       O640   1.960       .  S
Zn629       O641   1.989       .  S
O631        C643   1.280       .  A
O632        C644   1.281       .  A
O633        C645   1.274       .  A
O634        C643   1.283       .  A
O635        C645   1.279       .  A
O636        C644   1.281       .  A
O637        C646   1.277       .  A
O638        C647   1.277       .  A
O639        C646   1.287       .  A
O640        C647   1.273       .  A
O641        C648   1.272       .  A
O642        C648   1.280       .  A
C643        C695   1.547       .  S
C645        C664   1.466       .  S
C646        C653   1.535       .  S
C647        C681   1.448       .  S
C648        C706   1.500       .  S
C649        C650   1.420       .  A
C649        C654   1.426       .  A
C649        H656   1.078       .  S
C650        C651   1.434       .  A
C651        C652   1.428       .  A
C651        N658   1.431       .  S
C652        C653   1.409       .  A
C652        H657   1.083       .  S
C653        C654   1.417       .  A
C654        N655   1.428       .  S
N655        O659   1.262       .  A
N655        O660   1.262       .  A
N658        O662   1.262       .  A
N658       O1589   1.262       .  A
O661       N1586   1.261       .  A
C663        C664   1.400       .  A
C663        C668   1.384       .  A
C663        H670   1.084       .  S
C664        C665   1.411       .  A
C665        C666   1.400       .  A
C665        N672   1.428       .  S
C666        C667   1.408       .  A
C666        H671   1.084       .  S
C667        C668   1.414       .  A
C668        N669   1.430       .  S
N669        O673   1.262       .  A
N669        O674   1.263       .  A
N672        O676   1.262       .  A
N672        O675   1.262       .  A
C677        C678   1.398       .  A
C677        C682   1.387       .  A
C677        H684   1.084       .  S
C678        C679   1.395       .  A
C679        C680   1.390       .  A
C679        N686   1.428       .  S
C680        C681   1.406       .  A
C680        H685   1.084       .  S
C681        C682   1.405       .  A
C682        N683   1.429       .  S
N683        O687   1.262       .  A
N683        O688   1.262       .  A
N686        O690   1.262       .  A
N686        O689   1.261       .  A
C691        C692   1.418       .  A
C691        C696   1.426       .  A
C691        H698   1.078       .  S
C692        C693   1.431       .  A
C693        C694   1.427       .  A
C693        N700   1.431       .  S
C694        C695   1.413       .  A
C694        H699   1.083       .  S
C695        C696   1.424       .  A
C696        N697   1.428       .  S
N697        O701   1.262       .  A
N697        O702   1.262       .  A
N700        O704   1.261       .  A
N700       O1631   1.262       .  A
O703       N1628   1.262       .  A
C705        C706   1.410       .  A
C705        C710   1.399       .  A
C705        H712   1.083       .  S
C706        C707   1.416       .  A
C707        C708   1.412       .  A
C707        N714   1.429       .  S
C708        C709   1.406       .  A
C708        H713   1.083       .  S
C709        C710   1.406       .  A
C710        N711   1.430       .  S
N711        O715   1.262       .  A
N711        O716   1.262       .  A
N714        O718   1.262       .  A
N714        O717   1.262       .  A
C719        C720   1.412       .  A
C719        C724   1.407       .  A
C719        H726   1.084       .  S
C720       C1185   1.417       .  A
C721       C1184   1.418       .  A
C721        C722   1.409       .  A
C721        N728   1.429       .  S
C722       C1187   1.403       .  A
C722        H727   1.083       .  S
C723       C1186   1.403       .  A
C723        C724   1.408       .  A
C724        N725   1.429       .  S
N725        O729   1.262       .  A
N725        O730   1.262       .  A
N728        O732   1.262       .  A
N728        O731   1.262       .  A
C733        C734   1.412       .  A
C733        C738   1.420       .  A
C733        H740   1.081       .  S
C734        C735   1.438       .  A
C735        C736   1.432       .  A
C735        N742   1.438       .  S
C736        C737   1.409       .  A
C736        H741   1.083       .  S
C737        C738   1.415       .  A
C738        N739   1.424       .  S
N739        O743   1.261       .  A
N739        O744   1.261       .  A
N742        O746   1.263       .  A
N742        O745   1.261       .  A
C747        C748   1.410       .  A
C747        C752   1.402       .  A
C747        H754   1.083       .  S
C748        C749   1.415       .  A
C749        C750   1.394       .  A
C749        N756   1.432       .  S
C750        C751   1.401       .  A
C750        H755   1.084       .  S
C751        C752   1.414       .  A
C752        N753   1.430       .  S
N753        O757   1.262       .  A
N753        O758   1.262       .  A
N756        O760   1.262       .  A
N756        O759   1.262       .  A
C761        C762   1.396       .  A
C761        C766   1.386       .  A
C761        H768   1.084       .  S
C762        C763   1.398       .  A
C763        C764   1.395       .  A
C763        N770   1.428       .  S
C764        C765   1.406       .  A
C764        H769   1.084       .  S
C765        C766   1.408       .  A
C766        N767   1.430       .  S
N767        O771   1.262       .  A
N767        O772   1.262       .  A
N770        O774   1.262       .  A
N770        O773   1.262       .  A
C775        C776   1.414       .  A
C775        C780   1.432       .  A
C775        H782   1.083       .  S
C776        C777   1.416       .  A
C777        C778   1.418       .  A
C777        N784   1.429       .  S
C778        C779   1.415       .  A
C778        H783   1.075       .  S
C779        C780   1.431       .  A
C780        N781   1.435       .  S
N781        O785   1.262       .  A
N781        O786   1.260       .  A
N784        O788   1.262       .  A
N784        O787   1.262       .  A
C789        C790   1.401       .  A
C789        C794   1.397       .  A
C789        H796   1.084       .  S
C790        C791   1.399       .  A
C791        C792   1.385       .  A
C791        N798   1.430       .  S
C792        C793   1.409       .  A
C792        H797   1.083       .  S
C793        C794   1.404       .  A
C794        N795   1.427   1_556  S
N795        O799   1.261       .  A
N795        O800   1.262       .  A
N798        O802   1.262       .  A
N798        O801   1.262       .  A
C803        C804   1.418       .  A
C803        C808   1.419       .  A
C803        H810   1.078       .  S
C804        C805   1.429       .  A
C805        C806   1.428       .  A
C805        N812   1.430       .  S
C806        C807   1.411       .  A
C806        H811   1.083       .  S
C807        C808   1.413       .  A
C808        N809   1.428       .  S
N809        O813   1.262       .  A
N809        O814   1.262       .  A
N812        O816   1.261       .  A
N812        O815   1.262       .  A
C817        C818   1.408       .  A
C817        C822   1.426       .  A
C817        H824   1.084       .  S
C818        C819   1.414       .  A
C819        C820   1.426       .  A
C819        N826   1.428       .  S
C820        C821   1.429       .  A
C820        H825   1.079       .  S
C821        C822   1.444       .  A
C822        N823   1.432       .  S
N823        O827   1.263       .  A
N823        O828   1.260       .  A
N826        O830   1.261       .  A
N826        O829   1.262       .  A
C831        C832   1.404       .  A
C831        C836   1.379       .  A
C831        H838   1.078       .  S
C832        C833   1.408       .  A
C833        C834   1.392       .  A
C833        N840   1.432       .  S
C834        C835   1.404       .  A
C834        H839   1.084       .  S
C835        C836   1.402       .  A
C836        N837   1.427       .  S
N837        O841   1.261       .  A
N837        O842   1.262       .  A
N840        O844   1.262       .  A
N840        O843   1.262       .  A
C845        C846   1.407       .  A
C845        C850   1.413       .  A
C845        H852   1.083       .  S
C846       C1311   1.413       .  A
C847       C1310   1.415   1_565  A
C847        C848   1.401       .  A
C847        N854   1.431       .  S
C848       C1313   1.410   1_565  A
C848        H853   1.083       .  S
C849       C1312   1.411       .  A
C849        C850   1.417       .  A
C850        N851   1.428       .  S
N851        O855   1.262       .  A
N851        O856   1.262       .  A
N854        O858   1.262       .  A
N854        O857   1.262       .  A
C859        C860   1.412       .  A
C859        C864   1.411       .  A
C859        H866   1.083       .  S
C860        C861   1.420       .  A
C861        C862   1.399       .  A
C861        N868   1.430       .  S
C862        C863   1.399       .  A
C862        H867   1.078       .  S
C863        C864   1.408       .  A
C864        N865   1.428       .  S
N865        O869   1.262       .  A
N865        O870   1.262       .  A
N868        O872   1.262       .  A
N868        O871   1.262       .  A
C873        C874   1.410       .  A
C873        C878   1.430       .  A
C873        H880   1.083       .  S
C874        C875   1.412       .  A
C875        C876   1.416       .  A
C875        N882   1.426       .  S
C876        C877   1.416       .  A
C876        H881   1.083       .  S
C877        C878   1.433       .  A
C878        N879   1.431       .  S
N879        O883   1.263       .  A
N879        O884   1.262       .  A
N882        O886   1.262       .  A
N882        O885   1.262       .  A
C887        C888   1.411       .  A
C887        C892   1.429       .  A
C887        H894   1.083       .  S
C888        C889   1.424       .  A
C889        C890   1.422       .  A
C889        N896   1.429       .  S
C890        C891   1.414       .  A
C890        H895   1.078       .  S
C891        C892   1.433       .  A
C892        N893   1.431       .  S
N893        O897   1.262       .  A
N896        O900   1.262       .  A
N896        O899   1.262       .  A
C901        C902   1.403       .  A
C901        C906   1.389       .  A
C901        H908   1.084       .  S
C902        C903   1.401       .  A
C903        C904   1.384       .  A
C903        N910   1.429       .  S
C904        C905   1.400       .  A
C904        H909   1.084       .  S
C905        C906   1.396       .  A
C906        N907   1.429       .  S
N907        O911   1.262       .  A
N907        O912   1.262       .  A
N910        O914   1.262       .  A
N910        O913   1.262       .  A
C915        C916   1.401       .  A
C915        C920   1.393       .  A
C915        H922   1.083       .  S
C916        C917   1.411       .  A
C917        C918   1.388       .  A
C917        N924   1.427       .  S
C918        C919   1.407       .  A
C918        H923   1.079       .  S
C919        C920   1.409       .  A
C920        N921   1.426       .  S
N921        O925   1.263       .  A
N921        O926   1.262       .  A
N924        O928   1.261       .  A
N924        O927   1.262       .  A
Zn929       O933   1.988       .  S
Zn929       O934   1.989       .  S
Zn929       O938   2.053       .  S
Zn929       O945   2.164       .  S
Zn930       O933   1.976       .  S
Zn930       O935   2.092       .  S
Zn930       O937   1.960       .  S
Zn930       O941   2.039       .  S
Zn931       O933   1.999       .  S
Zn931       O936   2.107       .  S
Zn931       O939   2.147       .  S
Zn931       O942   2.001       .  S
Zn932       O933   1.958       .  S
Zn932       O940   1.929       .  S
Zn932       O943   2.027       .  S
Zn932       O944   2.087       .  S
O934        C946   1.278       .  A
O935        C947   1.277       .  A
O936        C948   1.285       .  A
O937        C946   1.273       .  A
O938        C948   1.279       .  A
O939        C947   1.284       .  A
O940        C949   1.269       .  A
O941        C950   1.275       .  A
O942        C949   1.277       .  A
O943        C950   1.275       .  A
O944        C951   1.276       .  A
O945        C951   1.287       .  A
C946       C1380   1.459       .  S
C947       C1338   1.532       .  S
C948       C1108   1.500       .  S
C949       C1366   1.430       .  S
C950       C1324   1.496       .  S
C951       C1352   1.546       .  S
C952       C1420   1.539       .  S
C952        C955   1.569       .  S
C952       C1355   1.596       .  S
C953       C1421   1.531       .  S
C953        C958   1.559   1_655  S
C953       C1341   1.590       .  S
C954        C962   1.358       .  A
C954        C957   1.397       .  A
C955        C966   1.392       .  A
C956       C1416   1.535       .  S
C956        C970   1.372   1_565  A
C956        C959   1.411   1_565  A
C957       C1417   1.535       .  S
C957        C960   1.367       .  A
C958        C964   1.391       .  A
C959        C967   1.378       .  A
C960        N961   1.355       .  A
C960        H973   1.082       .  S
N961        C962   1.353       .  A
N961       C1369   1.418       .  S
C962        H963   1.081       .  S
C964        H974   1.082   1_455  S
N965       C1430   1.352       .  A
N965       C1310   1.454       .  S
C966       N1429   1.353       .  A
C966        H972   1.082       .  S
C967        N968   1.356       .  A
C967        H969   1.080       .  S
N968        C970   1.350       .  A
N968       C1383   1.434       .  S
C970        H971   1.084   1_545  S
Zn975       O979   2.003   1_565  S
Zn975       O980   2.012   1_565  S
Zn975      O1448   2.166       .  S
Zn975       O991   2.073       .  S
Zn976       O979   1.987       .  S
Zn976       O981   2.084       .  S
Zn976       O983   1.968       .  S
Zn977      O1443   1.957       .  S
Zn977       O982   2.080       .  S
Zn977       O985   1.990       .  S
Zn978      O1450   1.990   1_545  S
Zn978       O989   2.110       .  S
Zn978       O990   2.074       .  S
O979      Zn1441   1.963   1_545  S
O980        C992   1.279       .  A
O981        C993   1.278       .  A
O982        C994   1.276       .  A
O983        C992   1.275       .  A
O984      Zn1439   2.130       .  S
O984        C994   1.282       .  A
O985       C1457   1.272       .  A
O986      Zn1442   1.990       .  S
O986        C995   1.275       .  A
O987        C996   1.280       .  A
O988        C995   1.267       .  A
O989        C996   1.279       .  A
O991        C997   1.280   1_556  A
C992       C1254   1.469       .  S
C993       O1449   1.271   1_545  A
C993       C1313   1.507       .  S
C994       C1282   1.535       .  S
C995       C1299   1.429       .  S
C996       C1271   1.527       .  S
C998       C1000   1.515       .  S
C998       C1002   1.538       .  S
C998       C1001   1.557       .  S
C998       C1268   1.588       .  S
C999       C1003   1.523       .  S
C999       C1005   1.554       .  S
C999       C1004   1.576       .  S
C999       C1285   1.609       .  S
C1000      C1008   1.363       .  A
C1000      C1003   1.391       .  A
C1001      C1012   1.390       .  A
C1001      C1004   1.440       .  A
C1002      C1016   1.376       .  A
C1002      C1005   1.415       .  A
C1003      C1006   1.361       .  A
C1004      C1010   1.382       .  A
C1005      C1013   1.380       .  A
C1006      N1007   1.354       .  A
C1006      H1019   1.082       .  S
N1007      C1008   1.353       .  A
N1007      C1296   1.419       .  S
C1008      H1009   1.083       .  S
C1010      N1011   1.353       .  A
C1010      H1020   1.073       .  S
N1011      C1012   1.351       .  A
N1011      C1327   1.443       .  S
C1012      H1018   1.080       .  S
C1013      N1014   1.354       .  A
C1013      H1015   1.077       .  S
N1014      C1016   1.353       .  A
N1014      C1257   1.445       .  S
C1016      H1017   1.082       .  S
Zn1021     O1489   1.968       .  S
Zn1021     O1026   2.102       .  S
Zn1021     O1030   2.021       .  S
Zn1022     O1025   1.992   1_655  S
Zn1022     O1027   1.986   1_565  S
Zn1022     O1493   2.116       .  S
Zn1022     O1033   2.044       .  S
Zn1023     O1025   1.962   1_545  S
Zn1023     O1028   2.025       .  S
Zn1023     O1031   1.996   1_455  S
Zn1024     O1032   2.139       .  S
Zn1024     O1035   2.080   1_545  S
Zn1024     O1500   1.983   1_545  S
O1025     Zn1485   1.968       .  S
O1026      C1038   1.280       .  A
O1027      C1039   1.275       .  A
O1028      C1040   1.278   1_545  A
O1029     Zn1486   2.170       .  S
O1029      C1038   1.288       .  A
O1030      C1504   1.274       .  A
O1031      C1039   1.276       .  A
O1032      C1041   1.284       .  A
O1033      C1042   1.276   1_655  A
O1034      C1041   1.278       .  A
O1036     Zn1488   1.973       .  S
O1036      C1043   1.271       .  A
O1037      C1043   1.283       .  A
C1038      C1240   1.544       .  S
C1039      C1229   1.466       .  S
C1040      O1494   1.281       .  A
C1040      C1184   1.499       .  S
C1041      C1201   1.534       .  S
C1043      C1215   1.473       .  S
C1044      C1046   1.545       .  S
C1044      C1048   1.540       .  S
C1044      C1047   1.547       .  S
C1044      C1198   1.592       .  S
C1045      C1049   1.540       .  S
C1045      C1051   1.546       .  S
C1045      C1050   1.548       .  S
C1045      C1243   1.597       .  S
C1046      C1054   1.375       .  A
C1046      C1049   1.399       .  A
C1047      C1058   1.382       .  A
C1047      C1050   1.416       .  A
C1048      C1062   1.376       .  A
C1048      C1051   1.424       .  A
C1049      C1052   1.366       .  A
C1050      C1056   1.383       .  A
C1051      C1059   1.377       .  A
C1052      N1053   1.365       .  A
C1052      H1065   1.081       .  S
N1053      C1054   1.363       .  A
N1053      C1212   1.450       .  S
C1054      H1055   1.077       .  S
C1056      N1057   1.358       .  A
C1056      H1066   1.083       .  S
N1057      C1058   1.359       .  A
N1057      C1173   1.448       .  S
C1058      H1064   1.081       .  S
C1059      N1060   1.344       .  A
C1059      H1061   1.079       .  S
N1060      C1062   1.344       .  A
N1060      C1226   1.418       .  S
C1062      H1063   1.080       .  S
C1067      C1535   1.528       .  S
C1067      C1070   1.566       .  S
C1067      C1156   1.591       .  S
C1068      C1536   1.530   1_545  S
C1068      C1073   1.567       .  S
C1068      C1114   1.591       .  S
C1069      C1077   1.368       .  A
C1069      C1072   1.400       .  A
C1070      C1081   1.390       .  A
C1071      C1531   1.543   1_545  S
C1071      C1085   1.370       .  A
C1071      C1074   1.409   1_655  A
C1072      C1532   1.534       .  S
C1072      C1075   1.372       .  A
C1073      C1079   1.398       .  A
C1074      C1082   1.361   1_455  A
C1075      N1076   1.354       .  A
C1075      H1088   1.078       .  S
N1076      C1077   1.356       .  A
N1076      C1131   1.440       .  S
C1077      H1078   1.083       .  S
C1079      H1089   1.079       .  S
N1080      C1545   1.348       .  A
N1080      C1187   1.442       .  S
C1081      N1544   1.354       .  A
C1081      H1087   1.081       .  S
C1082      N1083   1.349       .  A
C1082      H1084   1.082       .  S
N1083      C1085   1.355       .  A
N1083      C1142   1.414       .  S
C1085      H1086   1.081       .  S
Zn1090     O1094   1.972       .  S
Zn1090     O1095   2.103       .  S
Zn1090     O1099   1.960       .  S
Zn1090     O1106   2.058       .  S
Zn1091     O1094   2.000       .  S
Zn1091     O1096   2.083       .  S
Zn1091     O1098   2.127       .  S
Zn1091     O1102   2.007       .  S
Zn1092     O1094   2.000       .  S
Zn1092     O1097   2.007       .  S
Zn1092     O1100   2.074       .  S
Zn1092     O1103   2.160       .  S
Zn1093     O1094   1.961       .  S
Zn1093     O1101   2.084       .  S
Zn1093     O1104   1.979       .  S
Zn1093     O1105   2.011       .  S
O1095      C1107   1.279       .  A
O1096      C1108   1.281       .  A
O1097      C1109   1.275       .  A
O1098      C1107   1.283       .  A
O1099      C1109   1.275       .  A
O1100      C1108   1.283       .  A
O1101      C1110   1.277       .  A
O1102      C1111   1.278       .  A
O1103      C1110   1.288       .  A
O1104      C1111   1.275       .  A
O1105      C1112   1.273       .  A
O1106      C1112   1.277       .  A
C1107      C1159   1.542       .  S
C1109      C1128   1.469       .  S
C1110      C1117   1.531       .  S
C1111      C1145   1.455       .  S
C1112      C1170   1.500       .  S
C1113      C1114   1.418       .  A
C1113      C1118   1.425       .  A
C1113      H1120   1.079       .  S
C1114      C1115   1.435       .  A
C1115      C1116   1.426       .  A
C1115      N1122   1.432       .  S
C1116      C1117   1.407       .  A
C1116      H1121   1.083       .  S
C1117      C1118   1.417       .  A
C1118      N1119   1.428       .  S
N1119      O1123   1.262       .  A
N1119      O1124   1.262       .  A
N1122      O1126   1.261       .  A
C1127      C1128   1.400       .  A
C1127      C1132   1.382       .  A
C1127      H1134   1.084       .  S
C1128      C1129   1.409       .  A
C1129      C1130   1.399       .  A
C1129      N1136   1.429       .  S
C1130      C1131   1.410       .  A
C1130      H1135   1.084       .  S
C1131      C1132   1.417       .  A
C1132      N1133   1.428       .  S
N1133      O1137   1.262       .  A
N1133      O1138   1.262       .  A
N1136      O1140   1.262       .  A
N1136      O1139   1.262       .  A
C1141      C1142   1.398       .  A
C1141      C1146   1.391       .  A
C1141      H1148   1.084       .  S
C1142      C1143   1.397       .  A
C1143      C1144   1.392       .  A
C1143      N1150   1.427       .  S
C1144      C1145   1.405       .  A
C1144      H1149   1.084       .  S
C1145      C1146   1.407       .  A
C1146      N1147   1.429       .  S
N1147      O1151   1.262       .  A
N1147      O1152   1.262       .  A
N1150      O1154   1.262       .  A
N1150      O1153   1.261       .  A
C1155      C1156   1.418       .  A
C1155      C1160   1.424       .  A
C1155      H1162   1.079       .  S
C1156      C1157   1.431       .  A
C1157      C1158   1.425       .  A
C1157      N1164   1.432       .  S
C1158      C1159   1.412       .  A
C1158      H1163   1.083       .  S
C1159      C1160   1.423       .  A
C1160      N1161   1.429       .  S
N1161      O1165   1.262       .  A
N1161      O1166   1.262       .  A
N1164      O1168   1.262       .  A
C1169      C1170   1.409       .  A
C1169      C1174   1.400       .  A
C1169      H1176   1.083       .  S
C1170      C1171   1.417       .  A
C1171      C1172   1.409       .  A
C1171      N1178   1.429       .  S
C1172      C1173   1.406       .  A
C1172      H1177   1.083       .  S
C1173      C1174   1.411       .  A
C1174      N1175   1.427       .  S
N1175      O1179   1.262       .  A
N1175      O1180   1.262       .  A
N1178      O1182   1.262       .  A
N1178      O1181   1.262       .  A
C1183      C1184   1.410   1_545  A
C1183      C1188   1.401       .  A
C1183      H1190   1.083       .  S
C1185      C1186   1.411       .  A
C1185      N1192   1.428       .  S
C1186      H1191   1.083       .  S
C1187      C1188   1.405   1_565  A
C1188      N1189   1.428       .  S
N1189      O1193   1.262       .  A
N1189      O1194   1.261   1_455  A
N1192      O1196   1.262       .  A
N1192      O1195   1.262       .  A
C1197      C1198   1.411       .  A
C1197      C1202   1.419       .  A
C1197      H1204   1.082       .  S
C1198      C1199   1.437       .  A
C1199      C1200   1.431       .  A
C1199      N1206   1.437       .  S
C1200      C1201   1.408       .  A
C1200      H1205   1.083       .  S
C1201      C1202   1.416       .  A
C1202      N1203   1.423       .  S
N1203      O1207   1.262       .  A
N1203      O1208   1.261       .  A
N1206      O1210   1.263       .  A
N1206      O1209   1.261       .  A
C1211      C1212   1.408       .  A
C1211      C1216   1.401       .  A
C1211      H1218   1.083       .  S
C1212      C1213   1.414       .  A
C1213      C1214   1.394       .  A
C1213      N1220   1.432       .  S
C1214      C1215   1.401       .  A
C1214      H1219   1.084       .  S
C1215      C1216   1.416       .  A
C1216      N1217   1.430       .  S
N1217      O1221   1.262       .  A
N1217      O1222   1.262       .  A
N1220      O1224   1.262       .  A
N1220      O1223   1.263       .  A
C1225      C1226   1.398       .  A
C1225      C1230   1.388       .  A
C1225      H1232   1.084       .  S
C1226      C1227   1.397       .  A
C1227      C1228   1.394       .  A
C1227      N1234   1.427       .  S
C1228      C1229   1.408       .  A
C1228      H1233   1.084       .  S
C1229      C1230   1.411       .  A
C1230      N1231   1.430       .  S
N1231      O1235   1.262       .  A
N1231      O1236   1.262       .  A
N1234      O1238   1.261       .  A
N1234      O1237   1.262       .  A
C1239      C1240   1.419       .  A
C1239      C1244   1.436       .  A
C1239      H1246   1.083       .  S
C1240      C1241   1.418       .  A
C1241      C1242   1.420       .  A
C1241      N1248   1.428       .  S
C1242      C1243   1.416       .  A
C1242      H1247   1.077       .  S
C1243      C1244   1.428       .  A
C1244      N1245   1.432       .  S
N1245      O1249   1.262       .  A
N1245      O1250   1.259       .  A
N1248      O1252   1.262       .  A
N1248      O1251   1.262       .  A
C1253      C1254   1.403       .  A
C1253      C1258   1.400       .  A
C1253      H1260   1.083       .  S
C1254      C1255   1.411       .  A
C1255      C1256   1.383       .  A
C1255      N1262   1.432       .  S
C1256      C1257   1.406       .  A
C1256      H1261   1.078       .  S
C1257      C1258   1.413       .  A
C1258      N1259   1.430   1_556  S
N1259      O1263   1.262       .  A
N1259      O1264   1.262   1_554  A
N1262      O1266   1.262       .  A
N1262      O1265   1.262       .  A
C1267      C1268   1.417       .  A
C1267      C1272   1.425       .  A
C1267      H1274   1.076       .  S
C1268      C1269   1.433       .  A
C1269      C1270   1.422       .  A
C1269      N1276   1.431       .  S
C1270      C1271   1.405       .  A
C1270      H1275   1.084       .  S
C1271      C1272   1.416       .  A
C1272      N1273   1.428       .  S
N1273      O1277   1.262       .  A
N1273      O1278   1.262       .  A
N1276      O1280   1.261       .  A
N1276      O1279   1.262       .  A
C1281      C1282   1.408       .  A
C1281      C1286   1.427       .  A
C1281      H1288   1.083       .  S
C1282      C1283   1.412       .  A
C1283      C1284   1.421       .  A
C1283      N1290   1.428       .  S
C1284      C1285   1.426       .  A
C1284      H1289   1.077       .  S
C1285      C1286   1.443       .  A
C1286      N1287   1.433       .  S
N1287      O1291   1.263       .  A
N1287      O1292   1.259       .  A
N1290      O1294   1.261       .  A
N1290      O1293   1.262       .  A
C1295      C1296   1.401       .  A
C1295      C1300   1.383       .  A
C1295      H1302   1.082       .  S
C1296      C1297   1.410       .  A
C1297      C1298   1.389       .  A
C1297      N1304   1.432       .  S
C1298      C1299   1.393       .  A
C1298      H1303   1.084       .  S
C1299      C1300   1.401       .  A
C1300      N1301   1.431       .  S
N1301      O1305   1.262       .  A
N1301      O1306   1.262       .  A
N1304      O1308   1.262       .  A
N1304      O1307   1.262       .  A
C1309      C1310   1.408       .  A
C1309      C1314   1.414       .  A
C1309      H1316   1.083       .  S
C1311      C1312   1.403       .  A
C1311      N1318   1.430       .  S
C1312      H1317   1.083       .  S
C1313      C1314   1.417       .  A
C1314      N1315   1.428       .  S
N1315      O1319   1.261       .  A
N1315      O1320   1.262       .  A
N1318      O1322   1.262   1_455  A
N1318      O1321   1.262       .  A
C1323      C1324   1.411       .  A
C1323      C1328   1.408       .  A
C1323      H1330   1.083       .  S
C1324      C1325   1.416       .  A
C1325      C1326   1.400       .  A
C1325      N1332   1.430       .  S
C1326      C1327   1.400       .  A
C1326      H1331   1.079       .  S
C1327      C1328   1.407       .  A
C1328      N1329   1.427       .  S
N1329      O1333   1.261       .  A
N1329      O1334   1.262       .  A
N1332      O1336   1.262       .  A
N1332      O1335   1.262       .  A
C1337      C1338   1.412       .  A
C1337      C1342   1.431       .  A
C1337      H1344   1.083       .  S
C1338      C1339   1.413       .  A
C1339      C1340   1.420       .  A
C1339      N1346   1.428       .  S
C1340      C1341   1.419       .  A
C1340      H1345   1.083       .  S
C1341      C1342   1.432       .  A
C1342      N1343   1.430       .  S
N1343      O1347   1.262       .  A
N1343      O1348   1.262   1_655  A
N1346      O1350   1.262       .  A
N1346      O1349   1.262       .  A
C1351      C1352   1.411       .  A
C1351      C1356   1.430       .  A
C1351      H1358   1.083       .  S
C1352      C1353   1.424       .  A
C1353      C1354   1.424       .  A
C1353      N1360   1.428       .  S
C1354      C1355   1.415       .  A
C1354      H1359   1.080       .  S
C1355      C1356   1.436       .  A
C1356      N1357   1.433       .  S
N1357      O1361   1.261       .  A
N1357      O1826   1.262       .  A
N1360      O1364   1.262       .  A
N1360      O1363   1.262       .  A
O1362      N1821   1.262       .  A
C1365      C1366   1.396       .  A
C1365      C1370   1.388       .  A
C1365      H1372   1.085       .  S
C1366      C1367   1.399       .  A
C1367      C1368   1.385       .  A
C1367      N1374   1.430       .  S
C1368      C1369   1.403       .  A
C1368      H1373   1.083       .  S
C1369      C1370   1.406       .  A
C1370      N1371   1.429       .  S
N1371      O1375   1.262       .  A
N1371      O1376   1.262       .  A
N1374      O1378   1.262       .  A
N1374      O1377   1.262       .  A
C1379      C1380   1.402       .  A
C1379      C1384   1.395       .  A
C1379      H1386   1.084       .  S
C1380      C1381   1.405       .  A
C1381      C1382   1.382       .  A
C1381      N1388   1.430       .  S
C1382      C1383   1.410       .  A
C1382      H1387   1.082       .  S
C1383      C1384   1.406       .  A
C1384      N1385   1.429       .  S
N1385      O1389   1.262       .  A
N1385      O1390   1.262       .  A
N1388      O1392   1.262       .  A
N1388      O1391   1.262       .  A
Zn1393     O1397   1.995       .  S
Zn1393     O1398   1.997       .  S
Zn1393     O1402   2.045       .  S
Zn1393     O1409   2.137       .  S
Zn1394     O1397   1.985       .  S
Zn1394     O1399   2.089       .  S
Zn1394     O1401   1.986       .  S
Zn1394     O1405   2.068       .  S
Zn1395     O1397   1.990       .  S
Zn1395     O1400   2.104       .  S
Zn1395     O1403   2.143       .  S
Zn1395     O1406   2.022       .  S
Zn1396     O1397   1.958       .  S
Zn1396     O1404   1.938       .  S
Zn1396     O1407   2.009       .  S
Zn1396     O1408   2.073       .  S
O1398      C1410   1.277       .  A
O1399      C1411   1.278       .  A
O1400      C1412   1.286       .  A
O1401      C1410   1.275       .  A
O1402      C1412   1.276       .  A
O1403      C1411   1.285       .  A
O1404      C1413   1.267       .  A
O1405      C1414   1.278       .  A
O1406      C1413   1.279       .  A
O1407      C1414   1.272       .  A
O1408      C1415   1.276       .  A
O1409      C1415   1.284       .  A
C1410      C1844   1.474       .  S
C1411      C1802   1.530       .  S
C1412      C1572   1.499       .  S
C1413      C1830   1.440       .  S
C1414      C1788   1.500       .  S
C1415      C1816   1.536       .  S
C1416      C1419   1.571   1_565  S
C1416      C1819   1.588       .  S
C1417      C1422   1.556   1_655  S
C1417      C1805   1.584       .  S
C1418      C1426   1.362       .  A
C1418      C1421   1.395   1_565  A
C1419      C1430   1.393       .  A
C1420      C1434   1.372       .  A
C1420      C1423   1.408       .  A
C1421      C1424   1.367   1_545  A
C1422      C1428   1.393       .  A
C1423      C1431   1.373       .  A
C1424      N1425   1.356       .  A
C1424      H1437   1.082   1_565  S
N1425      C1426   1.354       .  A
N1425      C1833   1.418       .  S
C1426      H1427   1.082       .  S
C1428      H1438   1.082   1_455  S
N1429      C1774   1.443       .  S
C1430      H1436   1.078   1_545  S
C1431      N1432   1.355       .  A
C1431      H1433   1.079       .  S
N1432      C1434   1.356       .  A
N1432      C1847   1.445       .  S
C1434      H1435   1.081       .  S
Zn1439     O1443   1.977       .  S
Zn1439     O1444   1.970       .  S
Zn1439     O1455   2.024       .  S
Zn1440     O1443   1.987       .  S
Zn1440     O1445   2.091       .  S
Zn1440     O1447   2.011       .  S
Zn1441     O1446   2.063       .  S
Zn1441     O1449   2.002       .  S
Zn1442     O1453   2.117       .  S
Zn1442     O1454   2.100       .  S
O1444      C1456   1.273       .  A
O1445      C1457   1.281       .  A
O1446      C1458   1.276       .  A
O1447      C1456   1.280       .  A
O1448      C1458   1.288       .  A
O1450      C1459   1.276       .  A
O1451      C1460   1.283       .  A
O1452      C1459   1.270       .  A
O1453      C1460   1.283       .  A
O1455      C1461   1.275   1_556  A
C1456      C1718   1.452       .  S
C1457      C1777   1.497       .  S
C1458      C1746   1.540       .  S
C1459      C1763   1.454       .  S
C1460      C1735   1.532       .  S
C1462      C1464   1.525       .  S
C1462      C1466   1.535       .  S
C1462      C1465   1.562       .  S
C1462      C1732   1.589       .  S
C1463      C1467   1.526       .  S
C1463      C1469   1.544       .  S
C1463      C1468   1.572       .  S
C1463      C1749   1.611       .  S
C1464      C1472   1.366       .  A
C1464      C1467   1.398       .  A
C1465      C1476   1.391       .  A
C1465      C1468   1.438       .  A
C1466      C1480   1.371       .  A
C1466      C1469   1.406       .  A
C1467      C1470   1.358       .  A
C1468      C1474   1.385       .  A
C1469      C1477   1.379       .  A
C1470      N1471   1.351       .  A
C1470      H1483   1.083       .  S
N1471      C1472   1.355       .  A
N1471      C1760   1.410       .  S
C1472      H1473   1.081       .  S
C1474      N1475   1.359       .  A
C1474      H1484   1.076       .  S
N1475      C1476   1.354       .  A
N1475      C1791   1.459       .  S
C1476      H1482   1.081       .  S
C1477      N1478   1.356       .  A
C1477      H1479   1.080       .  S
N1478      C1480   1.353       .  A
N1478      C1721   1.447       .  S
C1480      H1481   1.079       .  S
Zn1485     O1490   2.124   1_455  S
Zn1485     O1494   2.060       .  S
Zn1486     O1489   2.008       .  S
Zn1486     O1491   1.977       .  S
Zn1486     O1497   2.097       .  S
Zn1487     O1489   1.992       .  S
Zn1487     O1492   2.082       .  S
Zn1487     O1495   2.004       .  S
Zn1488     O1496   2.129       .  S
Zn1488     O1499   2.051       .  S
O1490      C1502   1.282       .  A
O1491      C1503   1.273       .  A
O1492      C1504   1.282       .  A
O1493      C1502   1.280       .  A
O1495      C1503   1.279       .  A
O1496      C1505   1.283       .  A
O1497      C1506   1.284       .  A
O1498      C1505   1.279       .  A
O1500      C1507   1.273       .  A
O1501      C1507   1.275       .  A
C1502      C1704   1.535       .  S
C1503      C1693   1.459       .  S
C1504      C1648   1.509       .  S
C1505      C1665   1.529       .  S
C1507      C1679   1.472       .  S
C1508      C1510   1.535       .  S
C1508      C1512   1.529       .  S
C1508      C1511   1.557       .  S
C1508      C1662   1.589       .  S
C1509      C1513   1.539       .  S
C1509      C1515   1.556       .  S
C1509      C1514   1.567       .  S
C1509      C1707   1.614       .  S
C1510      C1518   1.371       .  A
C1510      C1513   1.406       .  A
C1511      C1522   1.391       .  A
C1511      C1514   1.430       .  A
C1512      C1526   1.367       .  A
C1512      C1515   1.402       .  A
C1513      C1516   1.366       .  A
C1514      C1520   1.386       .  A
C1515      C1523   1.380       .  A
C1516      N1517   1.356       .  A
C1516      H1529   1.083       .  S
N1517      C1518   1.355       .  A
N1517      C1676   1.429       .  S
C1518      H1519   1.078       .  S
C1520      N1521   1.357       .  A
C1520      H1530   1.077       .  S
N1521      C1522   1.357       .  A
N1521      C1637   1.455       .  S
C1522      H1528   1.082       .  S
C1523      N1524   1.365       .  A
C1523      H1525   1.078       .  S
N1524      C1526   1.354       .  A
N1524      C1690   1.449       .  S
C1526      H1527   1.078       .  S
C1531      C1534   1.561   1_655  S
C1531      C1620   1.594       .  S
C1532      C1537   1.567       .  S
C1532      C1578   1.588       .  S
C1533      C1541   1.369       .  A
C1533      C1536   1.403       .  A
C1534      C1545   1.391       .  A
C1535      C1549   1.369       .  A
C1535      C1538   1.394       .  A
C1536      C1539   1.363       .  A
C1537      C1543   1.396       .  A
C1538      C1546   1.371       .  A
C1539      N1540   1.359       .  A
C1539      H1552   1.078       .  S
N1540      C1541   1.363       .  A
N1540      C1595   1.439       .  S
C1541      H1542   1.081       .  S
C1543      H1553   1.082       .  S
N1544      C1651   1.455       .  S
C1545      H1551   1.082   1_455  S
C1546      N1547   1.361       .  A
C1546      H1548   1.081       .  S
N1547      C1549   1.358       .  A
N1547      C1606   1.441       .  S
C1549      H1550   1.081       .  S
Zn1554     O1558   1.966       .  S
Zn1554     O1559   2.115       .  S
Zn1554     O1563   1.988       .  S
Zn1554     O1570   2.043       .  S
Zn1555     O1558   1.993       .  S
Zn1555     O1560   2.052       .  S
Zn1555     O1562   2.136       .  S
Zn1555     O1566   1.985       .  S
Zn1556     O1558   1.995       .  S
Zn1556     O1561   2.005       .  S
Zn1556     O1564   2.098       .  S
Zn1556     O1567   2.153       .  S
Zn1557     O1558   1.974       .  S
Zn1557     O1565   2.079       .  S
Zn1557     O1568   1.962       .  S
Zn1557     O1569   2.035       .  S
O1559      C1571   1.281       .  A
O1560      C1572   1.277       .  A
O1561      C1573   1.278       .  A
O1562      C1571   1.284       .  A
O1563      C1573   1.277       .  A
O1564      C1572   1.286       .  A
O1565      C1574   1.275       .  A
O1566      C1575   1.276       .  A
O1567      C1574   1.285       .  A
O1568      C1575   1.272       .  A
O1569      C1576   1.276       .  A
O1570      C1576   1.277       .  A
C1571      C1623   1.532       .  S
C1573      C1592   1.470       .  S
C1574      C1581   1.543       .  S
C1575      C1609   1.464       .  S
C1576      C1634   1.501       .  S
C1577      C1578   1.413       .  A
C1577      C1582   1.421       .  A
C1577      H1584   1.080       .  S
C1578      C1579   1.436       .  A
C1579      C1580   1.429       .  A
C1579      N1586   1.435       .  S
C1580      C1581   1.411       .  A
C1580      H1585   1.083       .  S
C1581      C1582   1.424       .  A
C1582      N1583   1.427       .  S
N1583      O1587   1.261       .  A
N1583      O1588   1.262       .  A
N1586      O1590   1.263       .  A
C1591      C1592   1.402       .  A
C1591      C1596   1.394       .  A
C1591      H1598   1.084       .  S
C1592      C1593   1.410       .  A
C1593      C1594   1.390       .  A
C1593      N1600   1.430       .  S
C1594      C1595   1.405       .  A
C1594      H1599   1.080       .  S
C1595      C1596   1.415       .  A
C1596      N1597   1.430       .  S
N1597      O1601   1.263       .  A
N1597      O1602   1.262       .  A
N1600      O1604   1.262       .  A
N1600      O1603   1.262       .  A
C1605      C1606   1.404       .  A
C1605      C1610   1.387       .  A
C1605      H1612   1.080       .  S
C1606      C1607   1.410       .  A
C1607      C1608   1.393       .  A
C1607      N1614   1.427       .  S
C1608      C1609   1.398       .  A
C1608      H1613   1.083       .  S
C1609      C1610   1.412       .  A
C1610      N1611   1.429       .  S
N1611      O1615   1.262       .  A
N1611      O1616   1.262       .  A
N1614      O1618   1.262       .  A
N1614      O1617   1.262       .  A
C1619      C1620   1.421       .  A
C1619      C1624   1.425       .  A
C1619      H1626   1.079       .  S
C1620      C1621   1.433       .  A
C1621      C1622   1.428       .  A
C1621      N1628   1.433       .  S
C1622      C1623   1.409       .  A
C1622      H1627   1.083       .  S
C1623      C1624   1.415       .  A
C1624      N1625   1.428       .  S
N1625      O1629   1.262       .  A
N1625      O1630   1.262       .  A
N1628      O1632   1.261       .  A
C1633      C1634   1.412       .  A
C1633      C1638   1.410       .  A
C1633      H1640   1.083       .  S
C1634      C1635   1.414       .  A
C1635      C1636   1.402       .  A
C1635      N1642   1.430       .  S
C1636      C1637   1.406       .  A
C1636      H1641   1.073       .  S
C1637      C1638   1.412       .  A
C1638      N1639   1.428       .  S
N1639      O1643   1.262       .  A
N1639      O1644   1.262       .  A
N1642      O1646   1.262       .  A
N1642      O1645   1.262       .  A
C1647      C1648   1.411       .  A
C1647      C1652   1.413       .  A
C1647      H1654   1.083       .  S
C1649      C1650   1.403       .  A
C1649      N1656   1.430       .  S
C1650      H1655   1.079       .  S
C1651      C1652   1.414       .  A
C1652      N1653   1.428       .  S
N1653      O1657   1.262       .  A
N1653      O1658   1.262       .  A
N1656      O1660   1.262       .  A
N1656      O1659   1.262       .  A
C1661      C1662   1.418       .  A
C1661      C1666   1.421       .  A
C1661      H1668   1.078       .  S
C1662      C1663   1.433       .  A
C1663      C1664   1.427       .  A
C1663      N1670   1.430       .  S
C1664      C1665   1.409       .  A
C1664      H1669   1.083       .  S
C1665      C1666   1.413       .  A
C1666      N1667   1.428       .  S
N1667      O1671   1.262       .  A
N1667      O1672   1.262       .  A
N1670      O1674   1.262       .  A
N1670      O1673   1.262       .  A
C1675      C1676   1.400       .  A
C1675      C1680   1.388       .  A
C1675      H1682   1.083       .  S
C1676      C1677   1.408       .  A
C1677      C1678   1.393       .  A
C1677      N1684   1.430       .  S
C1678      C1679   1.406       .  A
C1678      H1683   1.084       .  S
C1679      C1680   1.414       .  A
C1680      N1681   1.430       .  S
N1681      O1685   1.262       .  A
N1681      O1686   1.262       .  A
N1684      O1688   1.262       .  A
N1684      O1687   1.262       .  A
C1689      C1690   1.400       .  A
C1689      C1694   1.389       .  A
C1689      H1696   1.081       .  S
C1690      C1691   1.416       .  A
C1691      C1692   1.395       .  A
C1691      N1698   1.428       .  S
C1692      C1693   1.398       .  A
C1692      H1697   1.084       .  S
C1693      C1694   1.407       .  A
C1694      N1695   1.423       .  S
N1695      O1699   1.261       .  A
N1695      O1700   1.261       .  A
N1698      O1702   1.263       .  A
N1698      O1701   1.259       .  A
C1703      C1704   1.405       .  A
C1703      C1708   1.433       .  A
C1703      H1710   1.083       .  S
C1704      C1705   1.411       .  A
C1705      C1706   1.422       .  A
C1705      N1712   1.429       .  S
C1706      C1707   1.426       .  A
C1706      H1711   1.076       .  S
C1707      C1708   1.448       .  A
C1708      N1709   1.440       .  S
N1709      O1713   1.263       .  A
N1709      O1714   1.259       .  A
N1712      O1716   1.262       .  A
N1712      O1715   1.262       .  A
C1717      C1718   1.398       .  A
C1717      C1722   1.395       .  A
C1717      H1724   1.084       .  S
C1718      C1719   1.400       .  A
C1719      C1720   1.387       .  A
C1719      N1726   1.430       .  S
C1720      C1721   1.414       .  A
C1720      H1725   1.078       .  S
C1721      C1722   1.415       .  A
C1722      N1723   1.433       .  S
N1723      O1727   1.263       .  A
N1723      O1728   1.262   1_556  A
N1726      O1730   1.262       .  A
N1726      O1729   1.262       .  A
C1731      C1732   1.418       .  A
C1731      C1736   1.421       .  A
C1731      H1738   1.080       .  S
C1732      C1733   1.432       .  A
C1733      C1734   1.428       .  A
C1733      N1740   1.432       .  S
C1734      C1735   1.411       .  A
C1734      H1739   1.083       .  S
C1735      C1736   1.416       .  A
C1736      N1737   1.428       .  S
N1737      O1741   1.262       .  A
N1737      O1742   1.262       .  A
N1740      O1744   1.262       .  A
N1740      O1743   1.262       .  A
C1745      C1746   1.411       .  A
C1745      C1750   1.427       .  A
C1745      H1752   1.083       .  S
C1746      C1747   1.412       .  A
C1747      C1748   1.424       .  A
C1747      N1754   1.428       .  S
C1748      C1749   1.432       .  A
C1748      H1753   1.078       .  S
C1749      C1750   1.437       .  A
C1750      N1751   1.430       .  S
N1751      O1755   1.263       .  A
N1751      O1756   1.260       .  A
N1754      O1758   1.262       .  A
N1754      O1757   1.262       .  A
C1759      C1760   1.399       .  A
C1759      C1764   1.381       .  A
C1759      H1766   1.084       .  S
C1760      C1761   1.395       .  A
C1761      C1762   1.389       .  A
C1761      N1768   1.429       .  S
C1762      C1763   1.410       .  A
C1762      H1767   1.084       .  S
C1763      C1764   1.406       .  A
C1764      N1765   1.429       .  S
N1765      O1769   1.262       .  A
N1765      O1770   1.262       .  A
N1768      O1772   1.262       .  A
N1768      O1771   1.262       .  A
C1773      C1774   1.406       .  A
C1773      C1778   1.412       .  A
C1773      H1780   1.083       .  S
C1775      C1776   1.395       .  A
C1775      N1782   1.429       .  S
C1776      H1781   1.084       .  S
C1777      C1778   1.416       .  A
C1778      N1779   1.428       .  S
N1779      O1783   1.262       .  A
N1779      O1784   1.262       .  A
N1782      O1786   1.261   1_455  A
N1782      O1785   1.262       .  A
C1787      C1788   1.409       .  A
C1787      C1792   1.413       .  A
C1787      H1794   1.083       .  S
C1788      C1789   1.414       .  A
C1789      C1790   1.398       .  A
C1789      N1796   1.430       .  S
C1790      C1791   1.405       .  A
C1790      H1795   1.074       .  S
C1791      C1792   1.419       .  A
C1792      N1793   1.430       .  S
N1793      O1797   1.262       .  A
N1793      O1798   1.262       .  A
N1796      O1800   1.262       .  A
N1796      O1799   1.262       .  A
C1801      C1802   1.412       .  A
C1801      C1806   1.430       .  A
C1801      H1808   1.083       .  S
C1802      C1803   1.414       .  A
C1803      C1804   1.417       .  A
C1803      N1810   1.427       .  S
C1804      C1805   1.416       .  A
C1804      H1809   1.082       .  S
C1805      C1806   1.431       .  A
C1806      N1807   1.430       .  S
N1807      O1811   1.262       .  A
N1807      O1812   1.262   1_655  A
N1810      O1814   1.261       .  A
N1810      O1813   1.262       .  A
C1815      C1816   1.411       .  A
C1815      C1820   1.425       .  A
C1815      H1822   1.083       .  S
C1816      C1817   1.422       .  A
C1817      C1818   1.419       .  A
C1817      N1824   1.429       .  S
C1818      C1819   1.415       .  A
C1818      H1823   1.077       .  S
C1819      C1820   1.430       .  A
C1820      N1821   1.430       .  S
N1821      O1825   1.262       .  A
N1824      O1828   1.262       .  A
N1824      O1827   1.262       .  A
C1829      C1830   1.401       .  A
C1829      C1834   1.394       .  A
C1829      H1836   1.084       .  S
C1830      C1831   1.400       .  A
C1831      C1832   1.384       .  A
C1831      N1838   1.429       .  S
C1832      C1833   1.402       .  A
C1832      H1837   1.084       .  S
C1833      C1834   1.404       .  A
C1834      N1835   1.429       .  S
N1835      O1839   1.262       .  A
N1835      O1840   1.262       .  A
N1838      O1842   1.262       .  A
N1838      O1841   1.262       .  A
C1843      C1844   1.404       .  A
C1843      C1848   1.397       .  A
C1843      H1850   1.083       .  S
C1844      C1845   1.410       .  A
C1845      C1846   1.386       .  A
C1845      N1852   1.429       .  S
C1846      C1847   1.408       .  A
C1846      H1851   1.079       .  S
C1847      C1848   1.413       .  A
C1848      N1849   1.430       .  S
N1849      O1853   1.263       .  A
N1849      O1854   1.261       .  A
N1852      O1856   1.261       .  A
N1852      O1855   1.262       .  A
