geometry optimzed in LAMMPS
_audit_creation_date              2020-11-30 
_audit_creation_method            'lammps2cif' 
_symmetry_space_group_name_H-M    'P1' 
_symmetry_Int_Tables_number       1 
_symmetry_cell_setting            triclinic 
loop_ 
_symmetry_equiv_pos_as_xyz 
  x,y,z 
_cell_length_a                    33.93025847519706 
_cell_length_b                    33.43403086842934 
_cell_length_c                    34.49551180946855 
_cell_angle_alpha                 89.96977062911286 
_cell_angle_beta                  90.86552375346457 
_cell_angle_gamma                 90.34950371343854 
loop_ 
_atom_site_label 
_atom_site_type_symbol 
_atom_site_fract_x 
_atom_site_fract_y 
_atom_site_fract_z 
_atom_site_charge 
O1          O  0.39637416  0.49860278  0.42335171    -0.73270
O2          O  0.39030412  0.06120794  0.45158734    -0.52170
C3          C  0.37765879  0.03321318  0.42891497     0.80460
O4          O  0.48751692  0.40239612  0.57507957    -0.57870
O5          O  0.04570730  0.39215225  0.54451154    -0.50900
C6          C  0.01814215  0.38103241  0.56753193     0.72480
O7          O  0.39380902  0.49521236  0.56986833    -0.72430
O8          O  0.38642412  0.05515461  0.53672151    -0.52990
C9          C  0.37529074  0.02730823  0.56010609     0.78480
O10         O  0.48787267  0.40323646  0.42500106    -0.57570
O11         O  0.04681087  0.39074260  0.46204138    -0.50690
C12         C  0.02051959  0.37993588  0.43674434     0.75070
Zr13       Zr  0.45759787  0.46605748  0.44214249     2.54710
O14         O  0.40566463  0.41554114  0.44036805    -0.78130
O15         O  0.46244898  0.46844307  0.37179871    -0.91550
Zr16       Zr  0.45721978  0.46544281  0.55687646     2.64680
O17         O  0.40579906  0.41435378  0.55935425    -0.96510
O18         O  0.46111557  0.47111154  0.62722435    -0.78570
O19         O  0.43026870  0.49300744  0.49907039    -0.81930
O20         O  0.48339150  0.43743751  0.49987390    -2.16630
O21         O  0.10332134  0.01291720  0.42679613    -0.65320
O22         O  0.11080817  0.45677091  0.46157650    -0.49880
C23         C  0.12133282  0.48346902  0.43678902     0.73450
O24         O  0.01030766  0.11157090  0.57012212    -0.58220
O25         O  0.45367696  0.12253346  0.53967730    -0.50200
C26         C  0.48184741  0.13379073  0.56274645     0.75260
O27         O  0.10295328  0.01807728  0.57415657    -0.69620
O28         O  0.11129387  0.45951277  0.54413584    -0.48290
C29         C  0.12251887  0.48804822  0.56693479     0.76640
O30         O  0.02050527  0.11598901  0.43558439    -0.64950
O31         O  0.45353323  0.12442785  0.45852494    -0.52150
C32         C  0.48040196  0.13530348  0.43468097     0.75020
Zr33       Zr  0.04346646  0.04775441  0.44301031     2.77540
O34         O  0.09739337  0.09564544  0.43638686    -0.95700
O35         O  0.03373292  0.04658097  0.37293564    -0.76520
Zr36       Zr  0.03932573  0.04699563  0.55756649     2.70070
O37         O  0.08944958  0.09845213  0.56774083    -0.77770
O38         O  0.03001281  0.03971495  0.62705333    -0.96850
Zr39       Zr  0.44534387  0.06432774  0.49764398     2.21500
Zr40       Zr  0.05312715  0.45042604  0.50252398     2.11130
O41         O  0.06868995  0.02051910  0.50140571    -2.45540
O42         O  0.01496629  0.07493406  0.49906839    -0.77560
O43         O  0.02775683  0.47707828  0.44297571    -0.69750
O44         O  0.47303253  0.03715798  0.55609758    -2.30710
O45         O  0.47020049  0.03651249  0.43915054    -2.26920
O46         O  0.02530412  0.47736510  0.56014755    -0.71510
H47         H  0.47804600  0.40903873  0.49968628     0.80480
H48         H  0.46172089  0.04944088  0.57866744     0.81570
H49         H  0.09674887  0.02546741  0.50207979     0.83800
H50         H  0.45825557  0.04872681  0.41651238     0.81400
H51         H  0.44403562  0.49401579  0.63359880     0.44440
H52         H  0.04311585  0.01421540  0.63382556     0.43410
H53         H  0.09882428  0.10471798  0.54136396     0.43090
H54         H  0.11819227  0.08637208  0.45465946     0.41020
H55         H  0.04453040  0.02051430  0.36476804     0.44150
H56         H  0.45476784  0.49600619  0.36458166     0.38940
H57         H  0.39433296  0.41627349  0.46664093     0.45050
H58         H  0.41479861  0.39277823  0.54200575     0.41470
H59         H  0.10812438  0.09071325  0.41029126     0.46390
H60         H  0.44033871  0.45147187  0.36226800     0.45110
H61         H  0.40798217  0.40291647  0.58578131     0.45250
H62         H  0.04719243  0.06061848  0.63879392     0.45600
C63         C  0.49707714  0.22246154  0.36451460     0.05160
C64         C  0.49540198  0.22209214  0.32394131    -0.10990
C65         C  0.49413159  0.25790910  0.30321276     0.02660
C66         C  0.49556359  0.29439669  0.32288587    -0.09520
C67         C  0.49894479  0.29526785  0.36344646     0.05150
C68         C  0.49919883  0.25912981  0.38436791    -0.08940
H69         H  0.49450342  0.19383145  0.30850072     0.10740
H70         H  0.49451551  0.32214912  0.30661391     0.08270
H71         H  0.50096803  0.25949425  0.41575036     0.08120
C72         C  0.20942822  0.00195646  0.36882531     0.05160
C73         C  0.24336578  0.00238531  0.39261985    -0.10990
C74         C  0.28020793  0.01128831  0.37687848     0.02660
C75         C  0.28344910  0.01847674  0.33695074    -0.09520
C76         C  0.24983056  0.01668533  0.31296778     0.05150
C77         C  0.21291894  0.00931550  0.32904029    -0.08940
H78         H  0.24117128  0.99710729  0.42350461     0.10740
H79         H  0.31214828  0.02378740  0.32447089     0.08270
H80         H  0.18685412  0.00875385  0.31043785     0.08120
C81         C  0.21571496  0.01141920  0.62785053     0.05160
C82         C  0.25129913  0.00986896  0.60743066    -0.10990
C83         C  0.28757834  0.01002399  0.62789567     0.02660
C84         C  0.28781063  0.01076568  0.66859551    -0.09520
C85         C  0.25245143  0.01320739  0.68870660     0.05150
C86         C  0.21663036  0.01396924  0.66834041    -0.08940
H87         H  0.25074121  0.00861297  0.57604219     0.10740
H88         H  0.31557291  0.01012429  0.68457955     0.08270
H89         H  0.18926960  0.01603439  0.68407598     0.08120
C90         C  0.49895086  0.22008323  0.63473664     0.05160
C91         C  0.49998664  0.25695974  0.61507817    -0.10990
C92         C  0.49945259  0.29300880  0.63610262     0.02660
C93         C  0.49691413  0.29181726  0.67665674    -0.09520
C94         C  0.49667655  0.25521779  0.69632704     0.05150
C95         C  0.49819363  0.21948214  0.67539409    -0.08940
H96         H  0.50111238  0.25756727  0.58371062     0.10740
H97         H  0.49556790  0.31948665  0.69297039     0.08270
H98         H  0.49807751  0.19113609  0.69069686     0.08120
C99         C  0.24268636  0.48291758  0.13601110     0.05160
C100        C  0.24612752  0.48364321  0.17659950    -0.10990
C101        C  0.24891902  0.02005820  0.19500910     0.02660
C102        C  0.24598217  0.05596098  0.17456564    -0.09520
C103        C  0.24068769  0.05586174  0.13417793     0.05150
C104        C  0.23999590  0.01929022  0.11399960    -0.08940
H105        H  0.24714734  0.45580143  0.19272248     0.10740
H106        H  0.24725110  0.08410280  0.19018972     0.08270
H107        H  0.23674301  0.01898623  0.08270736     0.08120
O108        O  0.22582053  0.37485785  0.92970525    -0.73270
O109        O  0.28471383  0.38418751  0.96135409    -0.52170
C110        C  0.25680691  0.39556545  0.93820689     0.80460
O111        O  0.13438552  0.27723422  0.07304595    -0.57870
O112        O  0.12490608  0.21941643  0.03882466    -0.50900
C113        C  0.11399833  0.24615745  0.06328720     0.72480
O114        O  0.22591289  0.37402296  0.07394885    -0.72430
O115        O  0.28436167  0.38361535  0.04316984    -0.52990
C116        C  0.25692866  0.39471586  0.06618788     0.78480
O117        O  0.13510506  0.27786578  0.92403622    -0.57570
O118        O  0.12833863  0.21702290  0.95346084    -0.50690
C119        C  0.11650287  0.24491432  0.93039097     0.75070
Zr120      Zr  0.19685408  0.31001821  0.94282769     2.54710
O121        O  0.14496955  0.35987118  0.93927217    -0.78190
O122        O  0.20230438  0.30727187  0.87255065    -0.91550
Zr123      Zr  0.19639645  0.30967903  0.05747070     2.64680
O124        O  0.14591333  0.36113452  0.05879946    -0.96510
O125        O  0.20026164  0.30495937  0.12788485    -0.78570
O126        O  0.22327509  0.33782931  0.00072353    -0.81930
O127        O  0.16918321  0.28254739  0.99945556    -2.16630
O128        O  0.24828961  0.16559817  0.92546930    -0.65320
O129        O  0.19144055  0.15386251  0.95819358    -0.49880
C130        C  0.21816549  0.14395931  0.93392020     0.73450
O131        O  0.34233705  0.25615437  0.07175104    -0.58220
O132        O  0.35101666  0.31711738  0.04348732    -0.50200
C133        C  0.36282930  0.28768339  0.06478912     0.75260
O134        O  0.24802349  0.16455052  0.07395129    -0.69620
O135        O  0.19046515  0.15357518  0.04060822    -0.48290
C136        C  0.21767390  0.14314561  0.06500808     0.76640
O137        O  0.34134452  0.25982764  0.92868727    -0.64950
O138        O  0.35055716  0.31841580  0.96161221    -0.52150
C139        C  0.36159137  0.29117201  0.93771806     0.75020
Zr140      Zr  0.27876336  0.22876125  0.94360379     2.77540
O141        O  0.33039042  0.17856322  0.94100052    -0.95700
O142        O  0.27422242  0.23490044  0.87334555    -0.76520
Zr143      Zr  0.27777258  0.22830731  0.05863063     2.70070
O144        O  0.32676794  0.17633692  0.06869258    -0.77770
O145        O  0.27174364  0.23736041  0.12831243    -0.96850
Zr146      Zr  0.29234839  0.32500508  0.00202317     2.21500
Zr147      Zr  0.18353439  0.21260238  0.99919616     2.11130
O148        O  0.25267692  0.20000346  0.00045993    -2.45540
O149        O  0.30576673  0.25523219  0.00184217    -0.77560
O150        O  0.21010518  0.24062003  0.94138497    -0.69750
O151        O  0.26520001  0.29771777  0.06002059    -2.30710
O152        O  0.26564835  0.29816727  0.94284264    -2.26920
O153        O  0.20915588  0.24002822  0.05848718    -0.71510
H154        H  0.14110820  0.28709776  0.99871833     0.80480
H155        H  0.27716531  0.30975279  0.08280953     0.81570
H156        H  0.25803945  0.17167849  0.00044215     0.83800
H157        H  0.27761885  0.31064865  0.92063069     0.81400
H158        H  0.22445791  0.31995754  0.13532895     0.44440
H159        H  0.24522094  0.22673961  0.13431560     0.43410
H160        H  0.33484868  0.16891508  0.04219979     0.43090
H161        H  0.32172008  0.15704965  0.95873209     0.41020
H162        H  0.24629977  0.22878723  0.86688214     0.44150
H163        H  0.22782372  0.32036775  0.86688480     0.38940
H164        H  0.14404708  0.37112227  0.96578691     0.45050
H165        H  0.12499393  0.35156557  0.04069150     0.41470
H166        H  0.32786724  0.16677931  0.91474136     0.46390
H167        H  0.18222822  0.32633801  0.86285432     0.45110
H168        H  0.13418436  0.35882319  0.08482438     0.45250
H169        H  0.29016688  0.21762503  0.13979692     0.45600
C170        C  0.45474790  0.25726418  0.12370641     0.05160
C171        C  0.45501089  0.25958464  0.16423048    -0.10990
C172        C  0.48977669  0.25269010  0.18531709     0.02660
C173        C  0.02519522  0.25902406  0.17107213    -0.09520
C174        C  0.02611199  0.26138252  0.13050598     0.05150
C175        C  0.48956024  0.24782722  0.10429194    -0.08940
H176        H  0.42795937  0.26593469  0.17934731     0.10740
H177        H  0.05253115  0.25845342  0.18777086     0.08270
H178        H  0.48883854  0.24463718  0.07304047     0.08120
C179        C  0.23879373  0.48353416  0.86924324     0.05160
C180        C  0.24298446  0.48227367  0.82895192    -0.10990
C181        C  0.24590522  0.01767808  0.80647337     0.02660
C182        C  0.24446480  0.05439711  0.82570862    -0.09520
C183        C  0.23898602  0.05579767  0.86591392     0.05150
C184        C  0.23667969  0.01989722  0.88708133    -0.08940
H185        H  0.24483295  0.45368272  0.81425815     0.10740
H186        H  0.24708014  0.08194812  0.80930608     0.08270
H187        H  0.23347252  0.02057659  0.91827714     0.08120
C188        C  0.44965820  0.27103502  0.87139502     0.05160
C189        C  0.45263522  0.26392125  0.83141076    -0.10990
C190        C  0.48953545  0.25931800  0.81441242     0.02660
C191        C  0.02305232  0.25927576  0.83540903    -0.09520
C192        C  0.02052752  0.26617872  0.87535193     0.05150
C193        C  0.48421104  0.27285451  0.89442473    -0.08940
H194        H  0.42618461  0.26255092  0.81339823     0.10740
H195        H  0.05167449  0.25628122  0.82217763     0.08270
H196        H  0.48249146  0.27787652  0.92537369     0.08120
C197        C  0.21517183  0.10439330  0.91494450    -0.14410
C198        C  0.23855055  0.09526228  0.88503159    -0.29580
H199        H  0.19417034  0.08256773  0.92572951     0.14620
H200        H  0.25747412  0.11823078  0.87279800     0.15190
C201        C  0.26002077  0.43534524  0.91978665    -0.14410
C202        C  0.23559566  0.44550434  0.89034655    -0.29580
H203        H  0.28299348  0.45596069  0.92950521     0.14620
H204        H  0.21454675  0.42381082  0.87876115     0.15190
C205        C  0.40284876  0.28920646  0.08266320    -0.14410
C206        C  0.41661232  0.25763062  0.10298868    -0.29580
H207        H  0.42092340  0.31590086  0.07946550     0.14620
H208        H  0.39835865  0.23117677  0.10688944     0.15190
C209        C  0.07476684  0.24178024  0.08100476    -0.14410
C210        C  0.06477614  0.26417333  0.11171934    -0.29580
H211        H  0.05398756  0.22007552  0.06899271     0.14620
H212        H  0.08662498  0.28367627  0.12540694     0.15190
C213        C  0.40993002  0.27299810  0.88846084    -0.14410
C214        C  0.40082221  0.29502504  0.91980216    -0.29580
H215        H  0.38696648  0.25531323  0.87418710     0.14620
H216        H  0.42248331  0.31516085  0.93281410     0.15190
C217        C  0.05674289  0.27065976  0.89883586    -0.14410
C218        C  0.07870368  0.23909279  0.90949159    -0.29580
H219        H  0.06552735  0.30075912  0.90729413     0.14620
H220        H  0.06850823  0.20889963  0.90309735     0.15190
C221        C  0.23934619  0.09477919  0.11410661    -0.14410
C222        C  0.21521479  0.10343139  0.08387436    -0.29580
H223        H  0.25825704  0.11808532  0.12630689     0.14620
H224        H  0.19417643  0.08136917  0.07301417     0.15190
C225        C  0.23965595  0.44380414  0.11624382    -0.14410
C226        C  0.26084579  0.43440334  0.08487691    -0.29580
H227        H  0.22119364  0.42113825  0.12960168     0.14620
H228        H  0.28176342  0.45588327  0.07330931     0.15190
C229        C  0.49452806  0.25451039  0.73803489    -0.11250
C230        C  0.49239634  0.25554571  0.77291803    -0.12810
C231        C  0.25249833  0.01501040  0.73033598    -0.11250
C232        C  0.25029350  0.01642439  0.76511992    -0.12810
C233        C  0.25287215  0.02003912  0.27155676    -0.11250
C234        C  0.25232523  0.02056120  0.23662396    -0.12810
C235        C  0.49015876  0.25532777  0.22683294    -0.11250
C236        C  0.49160113  0.25702456  0.26165762    -0.12810
C237        C  0.99702908  0.33108314  0.61532508    -0.14410
C238        C  0.02127576  0.34138411  0.58636760    -0.29580
H239        H  0.47986898  0.35500259  0.62906697     0.14620
H240        H  0.04323836  0.32041994  0.57634813     0.15190
C241        C  0.47853653  0.17298203  0.58227090    -0.14410
C242        C  0.50085839  0.18165371  0.61381950    -0.29580
H243        H  0.45726319  0.19452082  0.57130540     0.14620
H244        H  0.01631648  0.15731790  0.62491324     0.15190
C245        C  0.02345165  0.34016454  0.41846574    -0.14410
C246        C  0.00422102  0.33308831  0.38473958    -0.29580
H247        H  0.03948202  0.31647767  0.43325286     0.14620
H248        H  0.48117153  0.35767207  0.36990030     0.15190
C249        C  0.47736179  0.17509215  0.41630884    -0.14410
C250        C  0.49893557  0.18388107  0.38497586    -0.29580
H251        H  0.01131746  0.19699741  0.43778239     0.14620
H252        H  0.51690206  0.16086805  0.37188099     0.15190
C253        C  0.17700822  0.01321645  0.60799246    -0.14410
C254        C  0.16267630  0.48605605  0.58425928    -0.29580
H255        H  0.15759256  0.03717258  0.61681474     0.14620
H256        H  0.18183641  0.46156136  0.57629789     0.15190
C257        C  0.32576459  0.00727721  0.60801118    -0.14410
C258        C  0.33579103  0.03042774  0.57766013    -0.29580
H259        H  0.34759566  0.98753038  0.62102031     0.14620
H260        H  0.31516468  0.05241947  0.56634995     0.15190
C261        C  0.16020813  0.47967363  0.41852635    -0.14410
C262        C  0.16964029  0.99789600  0.38506773    -0.29580
H263        H  0.18340250  0.95780066  0.43082796     0.14620
H264        H  0.14601203  0.51866172  0.37249601     0.15190
C265        C  0.34052133  0.03941256  0.40731195    -0.14410
C266        C  0.31567209  0.00853057  0.40162364    -0.29580
H267        H  0.33357552  0.06888124  0.39590762     0.14620
H268        H  0.32126444  0.98009475  0.41592395     0.15190
O269        O  0.39506411  0.99970988  0.42319928    -0.73270
O270        O  0.39125794  0.55982121  0.45227066    -0.52170
C271        C  0.37893949  0.53209997  0.42911043     0.80460
O272        O  0.49077309  0.90470072  0.57297592    -0.57870
O273        O  0.04468247  0.89225438  0.54301457    -0.50900
C274        C  0.01641852  0.88160738  0.56543168     0.72480
O275        O  0.39591071  0.99646418  0.56931092    -0.72430
O276        O  0.38568078  0.55433297  0.53768643    -0.52990
C277        C  0.37384025  0.52649821  0.56075305     0.78480
O278        O  0.48579489  0.90338712  0.42489907    -0.57570
O279        O  0.04696754  0.89103433  0.46047581    -0.50690
C280        C  0.02041486  0.88045888  0.43535342     0.75070
Zr281      Zr  0.45633573  0.96702924  0.44099883     2.54710
O282        O  0.40392541  0.91702645  0.44115063    -0.78130
O283        O  0.45973456  0.96783776  0.37052976    -0.91550
Zr284      Zr  0.45966996  0.96758862  0.55555103     2.64680
O285        O  0.40890217  0.91603542  0.56043084    -0.96510
O286        O  0.46574821  0.97457318  0.62566794    -0.78570
O287        O  0.43067481  0.99450326  0.49841697    -0.81930
O288        O  0.48431646  0.93928830  0.49808155    -2.16630
O289        O  0.10108941  0.51448571  0.42747204    -0.65320
O290        O  0.11190052  0.95493641  0.46069510    -0.49880
C291        C  0.12283142  0.98137128  0.43587121     0.73450
O292        O  0.00796554  0.61151625  0.57141227    -0.58220
O293        O  0.45362911  0.62167842  0.54057255    -0.50200
C294        C  0.48178183  0.63313266  0.56357806     0.75260
O295        O  0.10169118  0.51891045  0.57509619    -0.69620
O296        O  0.11196677  0.95855649  0.54328482    -0.48290
C297        C  0.12346871  0.98698557  0.56609643     0.76640
O298        O  0.01092146  0.61099569  0.42866606    -0.64950
O299        O  0.45451202  0.62237918  0.46018051    -0.52150
C300        C  0.48177918  0.63321509  0.43678878     0.75020
Zr301      Zr  0.03999798  0.54686764  0.44412056     2.77540
O302        O  0.09120236  0.59821393  0.44248415    -0.95700
O303        O  0.03446759  0.54369076  0.37373198    -0.76520
Zr304      Zr  0.03760409  0.54712507  0.55882686     2.70070
O305        O  0.08739339  0.59911385  0.56792864    -0.77770
O306        O  0.02923867  0.54038908  0.62849867    -0.96850
Zr307      Zr  0.44534783  0.56271548  0.49946288     2.21500
Zr308      Zr  0.05392195  0.95045855  0.50119371     2.11130
O309        O  0.06647367  0.52069863  0.50240185    -2.45540
O310        O  0.01192686  0.57433116  0.50040208    -0.77560
O311        O  0.03018641  0.97813388  0.44139181    -0.69750
O312        O  0.47089673  0.53502217  0.55860632    -2.30710
O313        O  0.47185030  0.53541868  0.44145835    -2.26920
O314        O  0.02561116  0.97754353  0.55848621    -0.71510
H315        H  0.47897589  0.91089928  0.49847080     0.80480
H316        H  0.45893512  0.54729969  0.58084393     0.81570
H317        H  0.09444516  0.52614684  0.50276549     0.83800
H318        H  0.46056809  0.54790166  0.41863702     0.81400
H319        H  0.44723382  0.99617864  0.63237711     0.44440
H320        H  0.04196260  0.51467243  0.63519754     0.43410
H321        H  0.09629626  0.60529972  0.54137265     0.43090
H322        H  0.11214047  0.58857055  0.46040875     0.41020
H323        H  0.04117061  0.51572926  0.36723031     0.44150
H324        H  0.45040349  0.99473151  0.36282850     0.38940
H325        H  0.39418440  0.91727324  0.46806276     0.45050
H326        H  0.41730932  0.89444086  0.54280703     0.41470
H327        H  0.10267804  0.59596269  0.41635474     0.46390
H328        H  0.43840085  0.94943434  0.36185016     0.45110
H329        H  0.41229274  0.90476146  0.58681511     0.45250
H330        H  0.04698280  0.56101610  0.63988511     0.45600
C331        C  0.49731383  0.72061332  0.36667280     0.05160
C332        C  0.49617783  0.72067222  0.32603933    -0.10990
C333        C  0.49327196  0.75670373  0.30574099     0.02660
C334        C  0.49235008  0.79286265  0.32584020    -0.09520
C335        C  0.49529036  0.79335085  0.36633693     0.05150
C336        C  0.49736640  0.75711596  0.38690530    -0.08940
H337        H  0.49690133  0.69263999  0.31026064     0.10740
H338        H  0.49007042  0.82076268  0.30991057     0.08270
H339        H  0.49892536  0.75732678  0.41830243     0.08120
C340        C  0.20896791  0.50486124  0.37071950     0.05160
C341        C  0.24300157  0.50452772  0.39442115    -0.10990
C342        C  0.28007523  0.51221550  0.37850903     0.02660
C343        C  0.28333501  0.51889152  0.33846901    -0.09520
C344        C  0.24960249  0.51779470  0.31456846     0.05150
C345        C  0.21254904  0.51172805  0.33084742    -0.08940
H346        H  0.24070805  0.49956771  0.42534862     0.10740
H347        H  0.31211127  0.52325230  0.32583919     0.08270
H348        H  0.18642884  0.51166496  0.31231874     0.08120
C349        C  0.21439970  0.51218463  0.62927702     0.05160
C350        C  0.24983069  0.51056158  0.60860681    -0.10990
C351        C  0.28622801  0.51033830  0.62882903     0.02660
C352        C  0.28675203  0.51077448  0.66953072    -0.09520
C353        C  0.25156345  0.51327190  0.68989646     0.05150
C354        C  0.21560965  0.51442507  0.66978321    -0.08940
H355        H  0.24906216  0.50944189  0.57721472     0.10740
H356        H  0.31461384  0.50979591  0.68532550     0.08270
H357        H  0.18837553  0.51646603  0.68572892     0.08120
C358        C  0.50113245  0.72197137  0.63216884     0.05160
C359        C  0.50296503  0.75876530  0.61237433    -0.10990
C360        C  0.50244939  0.79493422  0.63329584     0.02660
C361        C  0.49909684  0.79384094  0.67383032    -0.09520
C362        C  0.49796971  0.75729369  0.69358884     0.05150
C363        C  0.49951655  0.72151888  0.67277366    -0.08940
H364        H  0.50462391  0.75918980  0.58103591     0.10740
H365        H  0.49769002  0.82155259  0.69006704     0.08270
H366        H  0.49877101  0.69321307  0.68813357     0.08120
C367        C  0.24366653  0.98306859  0.13451358     0.05160
C368        C  0.24725288  0.98368608  0.17507289    -0.10990
C369        C  0.24884502  0.52008097  0.19640617     0.02660
C370        C  0.24713486  0.55597604  0.17575514    -0.09520
C371        C  0.24192733  0.55583245  0.13534480     0.05150
C372        C  0.24017491  0.51916915  0.11535526    -0.08940
H373        H  0.24912328  0.95581350  0.19107999     0.10740
H374        H  0.24919722  0.58416140  0.19123805     0.08270
H375        H  0.23700608  0.51882504  0.08405585     0.08120
O376        O  0.22420817  0.87484581  0.92961657    -0.73270
O377        O  0.28381812  0.88394910  0.96000415    -0.52170
C378        C  0.25548265  0.89540297  0.93744037     0.80460
O379        O  0.13555308  0.77864423  0.07422982    -0.57870
O380        O  0.12587688  0.71972600  0.04196586    -0.50900
C381        C  0.11497664  0.74741324  0.06537433     0.72480
O382        O  0.22796104  0.87419870  0.07340579    -0.72430
O383        O  0.28576029  0.88372651  0.04155288    -0.52990
C384        C  0.25871672  0.89492924  0.06496844     0.78480
O385        O  0.13244594  0.77891884  0.92819763    -0.57570
O386        O  0.12418779  0.71986856  0.96040958    -0.50690
C387        C  0.11236479  0.74750646  0.93698903     0.75070
Zr388      Zr  0.19569612  0.80987924  0.94358210     2.54710
O389        O  0.14441754  0.86021522  0.93812474    -0.78190
O390        O  0.20055268  0.80427109  0.87342857    -0.91550
Zr391      Zr  0.19830808  0.80968841  0.05867217     2.64680
O392        O  0.14881751  0.86180918  0.06401505    -0.96510
O393        O  0.20510935  0.80339340  0.12879536    -0.78570
O394        O  0.22338959  0.83768324  0.00096910    -0.81930
O395        O  0.16974392  0.78297743  0.00125319    -2.16630
O396        O  0.24568117  0.66577862  0.92548631    -0.65320
O397        O  0.18926570  0.65451993  0.95905955    -0.49880
C398        C  0.21551817  0.64441302  0.93435542     0.73450
O399        O  0.34438447  0.75636665  0.06907481    -0.58220
O400        O  0.35232288  0.81694108  0.03974756    -0.50200
C401        C  0.36456872  0.78791851  0.06129137     0.75260
O402        O  0.25008729  0.66455523  0.07428622    -0.69620
O403        O  0.19151997  0.65404878  0.04249691    -0.48290
C404        C  0.21930408  0.64341505  0.06619933     0.76640
O405        O  0.33982055  0.75909708  0.92632049    -0.64950
O406        O  0.34953823  0.81794658  0.95869875    -0.52150
C407        C  0.36021952  0.79051207  0.93485516     0.75020
Zr408      Zr  0.27718904  0.72859727  0.94262365     2.77540
O409        O  0.32817839  0.67784233  0.93867967    -0.95700
O410        O  0.27115738  0.73483322  0.87246112    -0.76520
Zr411      Zr  0.27946706  0.72826359  0.05774935     2.70070
O412        O  0.32862452  0.67624263  0.06666368    -0.77770
O413        O  0.27563282  0.73790813  0.12754293    -0.96850
Zr414      Zr  0.29240364  0.82484688  0.00042687     2.21500
Zr415      Zr  0.18332930  0.71291156  0.00096313     2.11130
O416        O  0.25247747  0.70008659  0.00026998    -2.45540
O417        O  0.30576379  0.75507631  0.00011396    -0.77560
O418        O  0.20839698  0.74036075  0.94213367    -0.69750
O419        O  0.26708910  0.79773861  0.05932255    -2.30710
O420        O  0.26436028  0.79803043  0.94187612    -2.26920
O421        O  0.21083126  0.74003452  0.05961307    -0.71510
H422        H  0.14176160  0.78797995  0.00136747     0.80480
H423        H  0.27970849  0.80986049  0.08173455     0.81570
H424        H  0.25765446  0.67172435  0.00014072     0.83800
H425        H  0.27578412  0.81042023  0.91933359     0.81400
H426        H  0.22726658  0.82144817  0.13599444     0.44440
H427        H  0.25039065  0.72513873  0.13480254     0.43410
H428        H  0.33491322  0.66770108  0.03999261     0.43090
H429        H  0.31980790  0.65645184  0.95668898     0.41020
H430        H  0.24366119  0.72666923  0.86634885     0.44150
H431        H  0.22273551  0.82211978  0.86646231     0.38940
H432        H  0.13959026  0.86837286  0.96522396     0.45050
H433        H  0.12746621  0.85384225  0.04566319     0.41470
H434        H  0.32478904  0.66603459  0.91251001     0.46390
H435        H  0.17681535  0.81804806  0.86323184     0.45110
H436        H  0.13743090  0.85807830  0.09004228     0.45250
H437        H  0.29613984  0.72006022  0.13851483     0.45600
C438        C  0.45416526  0.76528721  0.12683493     0.05160
C439        C  0.45469142  0.76142492  0.16729688    -0.10990
C440        C  0.49040781  0.76126010  0.18787136     0.02660
C441        C  0.02500436  0.76459873  0.16929791    -0.09520
C442        C  0.02534022  0.76702498  0.12880459     0.05150
C443        C  0.48993041  0.76724832  0.10679903    -0.08940
H444        H  0.42720644  0.75906775  0.18282439     0.10740
H445        H  0.05258444  0.76432770  0.18562054     0.08270
H446        H  0.48979912  0.76937984  0.07545227     0.08120
C447        C  0.23872908  0.98300025  0.86774556     0.05160
C448        C  0.24245120  0.98210617  0.82738776    -0.10990
C449        C  0.24535306  0.51766754  0.80763694     0.02660
C450        C  0.24244056  0.55452104  0.82639703    -0.09520
C451        C  0.23658515  0.55623113  0.86653340     0.05150
C452        C  0.23530019  0.52053754  0.88813084    -0.08940
H453        H  0.24331974  0.95364729  0.81234585     0.10740
H454        H  0.24424952  0.58193381  0.80966793     0.08270
H455        H  0.23174456  0.52144494  0.91927826     0.08120
C456        C  0.44845401  0.77053470  0.86855676     0.05160
C457        C  0.45175838  0.76385725  0.82852025    -0.10990
C458        C  0.48885806  0.76004711  0.81167682     0.02660
C459        C  0.02054962  0.76267206  0.83075422    -0.09520
C460        C  0.02181977  0.76543064  0.87126931     0.05150
C461        C  0.48287746  0.77273151  0.89176213    -0.08940
H462        H  0.42542615  0.76233276  0.81035401     0.10740
H463        H  0.04777665  0.76165772  0.81470503     0.08270
H464        H  0.48090910  0.77750589  0.92273111     0.08120
C465        C  0.21217795  0.60484726  0.91542204    -0.14410
C466        C  0.23511878  0.59591411  0.88511176    -0.29580
H467        H  0.19178588  0.58277543  0.92682831     0.14620
H468        H  0.25335445  0.61915869  0.87236525     0.15190
C469        C  0.25867954  0.93510640  0.91895427    -0.14410
C470        C  0.23527105  0.94480015  0.88861007    -0.29580
H471        H  0.28107790  0.95604084  0.92932325     0.14620
H472        H  0.21509090  0.92267317  0.87630866     0.15190
C473        C  0.40471307  0.79021213  0.07860692    -0.14410
C474        C  0.41565707  0.76423428  0.10659044    -0.29580
H475        H  0.42489605  0.81352683  0.06927105     0.14620
H476        H  0.39431093  0.74288551  0.11766387     0.15190
C477        C  0.07550571  0.74396266  0.08271774    -0.14410
C478        C  0.06368819  0.77015770  0.10968740    -0.29580
H479        H  0.05596070  0.71980819  0.07347176     0.14620
H480        H  0.08401474  0.79280341  0.12076581     0.15190
C481        C  0.40863002  0.77197244  0.88556061    -0.14410
C482        C  0.39930149  0.79433375  0.91660565    -0.29580
H483        H  0.38589845  0.75376784  0.87155921     0.14620
H484        H  0.42080556  0.81490274  0.92922602     0.15190
C485        C  0.06070774  0.76840568  0.89066191    -0.14410
C486        C  0.07245383  0.74373264  0.91937607    -0.29580
H487        H  0.08143786  0.78974626  0.87853764     0.14620
H488        H  0.05266265  0.72051247  0.92968991     0.15190
C489        C  0.24143903  0.59467167  0.11498553    -0.14410
C490        C  0.21680944  0.60376635  0.08525678    -0.29580
H491        H  0.26116735  0.61756950  0.12664570     0.14620
H492        H  0.19502592  0.58211433  0.07506228     0.15190
C493        C  0.24125866  0.94398704  0.11476088    -0.14410
C494        C  0.26259103  0.93471736  0.08344337    -0.29580
H495        H  0.22297977  0.92119149  0.12816110     0.14620
H496        H  0.28329819  0.95633087  0.07175169     0.15190
C497        C  0.49488134  0.75655940  0.73525999    -0.11250
C498        C  0.49212223  0.75707259  0.77012299    -0.12810
C499        C  0.25192276  0.51474822  0.73153028    -0.11250
C500        C  0.24985022  0.51611614  0.76631852    -0.12810
C501        C  0.25261920  0.52052736  0.27305512    -0.11250
C502        C  0.25211561  0.52072245  0.23808461    -0.12810
C503        C  0.49073014  0.75838434  0.22935543    -0.11250
C504        C  0.49159970  0.75686151  0.26418221    -0.12810
C505        C  0.99291687  0.83206946  0.61249751    -0.14410
C506        C  0.01841838  0.84194741  0.58444335    -0.29580
H507        H  0.48337299  0.85705424  0.62636966     0.14620
H508        H  0.04061758  0.82074673  0.57542834     0.15190
C509        C  0.47923309  0.67318092  0.58170771    -0.14410
C510        C  0.50321308  0.68334421  0.61164988    -0.29580
H511        H  0.45710544  0.69407023  0.57120959     0.14620
H512        H  0.01405783  0.65918472  0.62530391     0.15190
C513        C  0.02292195  0.84051378  0.41726189    -0.14410
C514        C  0.99887099  0.83100374  0.38720103    -0.29580
H515        H  0.04417149  0.81903394  0.42836973     0.14620
H516        H  0.47361196  0.85414943  0.37427540     0.15190
C517        C  0.47852830  0.67283750  0.41821235    -0.14410
C518        C  0.50009058  0.68196600  0.38698664    -0.29580
H519        H  0.95569892  0.69247204  0.42850138     0.14620
H520        H  0.51854140  0.65928936  0.37400531     0.15190
C521        C  0.17554507  0.51390832  0.60968343    -0.14410
C522        C  0.16359108  0.98469367  0.58352449    -0.29580
H523        H  0.15562664  0.53705020  0.61939088     0.14620
H524        H  0.18228791  0.95956865  0.57635344     0.15190
C525        C  0.32422747  0.50721791  0.60871217    -0.14410
C526        C  0.33437144  0.53017417  0.57825156    -0.29580
H527        H  0.34590410  0.48726671  0.62167874     0.14620
H528        H  0.31399816  0.55241284  0.56696042     0.15190
C529        C  0.16131807  0.97674784  0.41718392    -0.14410
C530        C  0.16908223  0.50161945  0.38704500    -0.29580
H531        H  0.18206265  0.46019874  0.43181733     0.14620
H532        H  0.14623148  0.01425497  0.37028105     0.15190
C533        C  0.34211342  0.53873004  0.40706417    -0.14410
C534        C  0.31560941  0.50897796  0.40328150    -0.29580
H535        H  0.33662594  0.56777360  0.39397746     0.14620
H536        H  0.31979565  0.48130698  0.41935231     0.15190
O537        O  0.90213179  0.49729121  0.41545601    -0.73270
O538        O  0.89246517  0.05722075  0.44581831    -0.52170
C539        C  0.88545956  0.03206035  0.41806134     0.80460
O540        O  0.98713558  0.40148090  0.57479141    -0.57870
O541        O  0.54496867  0.39212860  0.54306484    -0.50900
C542        C  0.51802742  0.38149845  0.56701863     0.72480
O543        O  0.89291268  0.49338668  0.56939441    -0.72430
O544        O  0.88563714  0.05493453  0.53259238    -0.52990
C545        C  0.87390881  0.02788186  0.55656905     0.78480
O546        O  0.99036935  0.40077549  0.42664402    -0.57570
O547        O  0.54514119  0.39252191  0.45893676    -0.50690
C548        C  0.51831954  0.38225618  0.43395525     0.75070
Zr549      Zr  0.95927852  0.46353414  0.44168429     2.54710
O550        O  0.90611556  0.41434092  0.44104353    -0.78130
O551        O  0.96713880  0.46156516  0.37164985    -0.91550
Zr552      Zr  0.95656596  0.46426637  0.55648782     2.64680
O553        O  0.90545756  0.41296445  0.56015171    -0.96510
O554        O  0.96089240  0.47083303  0.62675819    -0.78570
O555        O  0.92967592  0.49009320  0.49777253    -0.81930
O556        O  0.98409708  0.43615053  0.50023098    -2.16630
O557        O  0.59109698  0.01140284  0.41134621    -0.65320
O558        O  0.61087685  0.45713689  0.46078801    -0.49880
C559        C  0.62141308  0.48397983  0.43613036     0.73450
O560        O  0.51317760  0.11351932  0.57011269    -0.58220
O561        O  0.95270822  0.12121751  0.53639045    -0.50200
C562        C  0.97983013  0.13231777  0.56076291     0.75260
O563        O  0.60514734  0.01972213  0.56858054    -0.69620
O564        O  0.61145082  0.45797384  0.54266013    -0.48290
C565        C  0.62313449  0.48579894  0.56609783     0.76640
O566        O  0.51029460  0.11408996  0.42549912    -0.64950
O567        O  0.95721391  0.12229650  0.45645689    -0.52150
C568        C  0.98858484  0.13572787  0.44028175     0.75020
Zr569      Zr  0.53859457  0.04942406  0.43948635     2.77540
O570        O  0.59458740  0.09541970  0.44114582    -0.95700
O571        O  0.53058063  0.05477321  0.36942963    -0.76520
Zr572      Zr  0.54177982  0.04943100  0.55412052     2.70070
O573        O  0.59261060  0.10069209  0.56100902    -0.77770
O574        O  0.53649683  0.04214856  0.62409058    -0.96850
Zr575      Zr  0.94573727  0.06235665  0.49478351     2.21500
Zr576      Zr  0.55273187  0.45062519  0.50127600     2.11130
O577        O  0.56808198  0.02270633  0.49626973    -2.45540
O578        O  0.51429090  0.07770635  0.49705368    -0.77560
O579        O  0.52648736  0.47821310  0.44242966    -0.69750
O580        O  0.97033004  0.03538461  0.55474407    -2.30710
O581        O  0.97514191  0.03546702  0.43797989    -2.26920
O582        O  0.52617934  0.47737641  0.55954104    -0.71510
H583        H  0.97907728  0.40769762  0.50027273     0.80480
H584        H  0.95776505  0.04777206  0.57658896     0.81570
H585        H  0.59613652  0.02745872  0.49515783     0.83800
H586        H  0.96507405  0.04815238  0.41473406     0.81400
H587        H  0.94353964  0.49356423  0.63300182     0.44440
H588        H  0.54857024  0.01590480  0.62995903     0.43410
H589        H  0.60042000  0.10669325  0.53407264     0.43090
H590        H  0.61764044  0.07883447  0.44832979     0.41020
H591        H  0.52416349  0.02723064  0.36078537     0.44150
H592        H  0.96273101  0.48940669  0.36288936     0.38940
H593        H  0.89614079  0.41449488  0.46786863     0.45050
H594        H  0.91435372  0.39123466  0.54293080     0.41470
H595        H  0.59877253  0.10251946  0.41363509     0.46390
H596        H  0.94378768  0.44655117  0.36188822     0.45110
H597        H  0.90801663  0.40185267  0.58668211     0.45250
H598        H  0.55545045  0.06199494  0.63488454     0.45600
C599        C  0.97945062  0.22300133  0.37066584     0.05160
C600        C  0.97798427  0.22135955  0.33001882    -0.10990
C601        C  0.98752703  0.25509056  0.30806874     0.02660
C602        C  0.99738694  0.29097093  0.32649453    -0.09520
C603        C  0.99889043  0.29330148  0.36698298     0.05150
C604        C  0.99017188  0.25916416  0.38916578    -0.08940
H605        H  0.97012493  0.19362724  0.31546743     0.10740
H606        H  0.00365992  0.31733003  0.30923861     0.08270
H607        H  0.98987368  0.26130028  0.42048194     0.08120
C608        C  0.71513190  0.99665908  0.38279325     0.05160
C609        C  0.74814909  0.01285960  0.40215892    -0.10990
C610        C  0.77977767  0.02926506  0.38186668     0.02660
C611        C  0.77791832  0.03034640  0.34099234    -0.09520
C612        C  0.74518928  0.01425358  0.32087833     0.05150
C613        C  0.71403734  0.99712734  0.34177130    -0.08940
H614        H  0.74948859  0.01232946  0.43359531     0.10740
H615        H  0.80173083  0.04361341  0.32474222     0.08270
H616        H  0.68928296  0.98461868  0.32574993     0.08120
C617        C  0.71537363  0.01194648  0.62552744     0.05160
C618        C  0.75115011  0.01153000  0.60542156    -0.10990
C619        C  0.78722209  0.01346067  0.62613717     0.02660
C620        C  0.78711766  0.01485976  0.66685035    -0.09520
C621        C  0.75152644  0.01611372  0.68670960     0.05150
C622        C  0.71588273  0.01510439  0.66602427    -0.08940
H623        H  0.75090440  0.00978103  0.57405820     0.10740
H624        H  0.81476849  0.01545271  0.68303386     0.08270
H625        H  0.68833641  0.01628114  0.68154346     0.08120
C626        C  0.99641368  0.21880385  0.63266142     0.05160
C627        C  0.99767046  0.25577652  0.61320614    -0.10990
C628        C  0.99760546  0.29165077  0.63451404     0.02660
C629        C  0.99538751  0.29027467  0.67504075    -0.09520
C630        C  0.99503580  0.25358344  0.69445339     0.05150
C631        C  0.99600281  0.21798055  0.67332199    -0.08940
H632        H  0.99866504  0.25662984  0.58183564     0.10740
H633        H  0.99442086  0.31786478  0.69152130     0.08270
H634        H  0.99580830  0.18955831  0.68849437     0.08120
C635        C  0.74553622  0.48393365  0.13427095     0.05160
C636        C  0.74809797  0.48472536  0.17494714    -0.10990
C637        C  0.74119612  0.01763422  0.20139860     0.02660
C638        C  0.73969933  0.05431135  0.18167595    -0.09520
C639        C  0.73761921  0.05561451  0.14088446     0.05150
C640        C  0.73884290  0.01957317  0.11973430    -0.08940
H641        H  0.74933396  0.45689803  0.19107792     0.10740
H642        H  0.73969771  0.08194757  0.19811132     0.08270
H643        H  0.73796726  0.02027407  0.08833538     0.08120
O644        O  0.72775682  0.37302102  0.92823130    -0.73270
O645        O  0.78718688  0.38170684  0.95901518    -0.52170
C646        C  0.75926190  0.39324873  0.93598771     0.80460
O647        O  0.63325033  0.28163915  0.06940383    -0.57870
O648        O  0.62580676  0.22061224  0.04001453    -0.50900
C649        C  0.61337409  0.24996543  0.06053674     0.72480
O650        O  0.72888442  0.37447055  0.07323439    -0.72430
O651        O  0.78698110  0.38340526  0.04172972    -0.52990
C652        C  0.75985793  0.39498460  0.06490347     0.78480
O653        O  0.63567224  0.27703341  0.92623721    -0.57570
O654        O  0.62845397  0.21694391  0.95703827    -0.50690
C655        C  0.61656720  0.24461907  0.93367765     0.75070
Zr656      Zr  0.69809450  0.30884153  0.94340308     2.54710
O657        O  0.64681817  0.35940167  0.94088571    -0.78190
O658        O  0.70157507  0.30480075  0.87304740    -0.91550
Zr659      Zr  0.69846996  0.31008629  0.05825058     2.64680
O660        O  0.65110694  0.36419350  0.06379287    -0.96510
O661        O  0.70295428  0.30259395  0.12838968    -0.78570
O662        O  0.72497059  0.33738279  0.00079588    -0.81930
O663        O  0.67120791  0.28228054  0.00059404    -2.16630
O664        O  0.74724807  0.16447579  0.92684182    -0.65320
O665        O  0.69099925  0.15311079  0.96060782    -0.49880
C666        C  0.71700157  0.14318589  0.93558762     0.73450
O667        O  0.84448883  0.25560637  0.07110238    -0.58220
O668        O  0.85348648  0.31574284  0.04127207    -0.50200
C669        C  0.86523003  0.28670849  0.06306917     0.75260
O670        O  0.74947892  0.16482574  0.07873912    -0.69620
O671        O  0.69209139  0.15399914  0.04493234    -0.48290
C672        C  0.71885544  0.14366701  0.06998467     0.76640
O673        O  0.84157068  0.25745796  0.92831216    -0.64950
O674        O  0.85125831  0.31649297  0.96036229    -0.52150
C675        C  0.86186202  0.28899048  0.93660108     0.75020
Zr676      Zr  0.77928381  0.22672318  0.94494861     2.77540
O677        O  0.83010532  0.17565498  0.94327809    -0.95700
O678        O  0.77462805  0.23147128  0.87459084    -0.76520
Zr679      Zr  0.77936042  0.22796002  0.06012323     2.70070
O680        O  0.82794463  0.17551961  0.06975816    -0.77770
O681        O  0.77568321  0.23934891  0.12967352    -0.96850
Zr682      Zr  0.79387485  0.32382909  0.00150749     2.21500
Zr683      Zr  0.68473897  0.21206693  0.00169158     2.11130
O684        O  0.75366614  0.19880898  0.00251411    -2.45540
O685        O  0.80681272  0.25393763  0.00257399    -0.77560
O686        O  0.71079585  0.23922636  0.94323824    -0.69750
O687        O  0.76723859  0.29762416  0.06028192    -2.30710
O688        O  0.76663697  0.29618835  0.94299550    -2.26920
O689        O  0.71073452  0.24027312  0.06052969    -0.71510
H690        H  0.64326097  0.28737508  0.99935978     0.80480
H691        H  0.77952002  0.31002636  0.08272696     0.81570
H692        H  0.75865928  0.17040752  0.00289613     0.83800
H693        H  0.77848624  0.30813916  0.92045243     0.81400
H694        H  0.72489710  0.32052375  0.13650144     0.44440
H695        H  0.75012968  0.22739911  0.13715405     0.43410
H696        H  0.83532667  0.16764434  0.04318132     0.43090
H697        H  0.82078159  0.15435753  0.96092702     0.41020
H698        H  0.74625664  0.22762210  0.86845204     0.44150
H699        H  0.72772155  0.31608427  0.86663840     0.38940
H700        H  0.64747867  0.37158521  0.96704787     0.45050
H701        H  0.63027435  0.35806012  0.04424314     0.41470
H702        H  0.82773035  0.16382648  0.91702660     0.46390
H703        H  0.68255103  0.32505040  0.86357562     0.45110
H704        H  0.63840187  0.35990379  0.08912549     0.45250
H705        H  0.79572890  0.22123857  0.14106542     0.45600
C706        C  0.95434874  0.26188488  0.12842840     0.05160
C707        C  0.95397811  0.25775794  0.16882369    -0.10990
C708        C  0.98921211  0.25671696  0.19011382     0.02660
C709        C  0.52428302  0.24274355  0.16610155    -0.09520
C710        C  0.52466429  0.24067476  0.12556279     0.05150
C711        C  0.99051604  0.26329234  0.10907699    -0.08940
H712        H  0.92611876  0.25588734  0.18377135     0.10740
H713        H  0.55112240  0.23736592  0.18273258     0.08270
H714        H  0.99095316  0.26570788  0.07776147     0.08120
C715        C  0.73928939  0.48390484  0.87103119     0.05160
C716        C  0.74428458  0.48140236  0.83090819    -0.10990
C717        C  0.74405977  0.01998075  0.80462163     0.02660
C718        C  0.74098570  0.05635174  0.82427552    -0.09520
C719        C  0.73580546  0.05705078  0.86457562     0.05150
C720        C  0.73527130  0.02083372  0.88536817    -0.08940
H721        H  0.74592072  0.45235852  0.81704805     0.10740
H722        H  0.74235314  0.08417390  0.80815344     0.08270
H723        H  0.73232119  0.02097883  0.91659583     0.08120
C724        C  0.94902911  0.26913168  0.86940927     0.05160
C725        C  0.95189433  0.26173864  0.82949493    -0.10990
C726        C  0.98879096  0.25758629  0.81240174     0.02660
C727        C  0.52370040  0.26033501  0.83760660    -0.09520
C728        C  0.52112527  0.26682521  0.87762825     0.05150
C729        C  0.98364108  0.27178457  0.89223341    -0.08940
H730        H  0.92537781  0.25982392  0.81162020     0.10740
H731        H  0.55233502  0.25708707  0.82445827     0.08270
H732        H  0.98201112  0.27695624  0.92316606     0.08120
C733        C  0.71313241  0.10406693  0.91586515    -0.14410
C734        C  0.73456635  0.09626107  0.88418906    -0.29580
H735        H  0.69346965  0.08151997  0.92762417     0.14620
H736        H  0.75184296  0.12012881  0.87122482     0.15190
C737        C  0.76332061  0.43264745  0.91690706    -0.14410
C738        C  0.73473297  0.44674667  0.89324950    -0.29580
H739        H  0.79015364  0.44999896  0.92163617     0.14620
H740        H  0.70841533  0.42904224  0.88716777     0.15190
C741        C  0.90540743  0.28834990  0.08043033    -0.14410
C742        C  0.91620836  0.26136566  0.10756152    -0.29580
H743        H  0.92567270  0.31193001  0.07190047     0.14620
H744        H  0.89484681  0.23956367  0.11776403     0.15190
C745        C  0.57243547  0.24912902  0.07317291    -0.14410
C746        C  0.56257836  0.23205120  0.10671195    -0.29580
H747        H  0.55188629  0.26868636  0.05809174     0.14620
H748        H  0.58499570  0.21590875  0.12316239     0.15190
C749        C  0.90947080  0.27068582  0.88676254    -0.14410
C750        C  0.90064693  0.29292562  0.91799484    -0.29580
H751        H  0.88654137  0.25256128  0.87296938     0.14620
H752        H  0.92227945  0.31347298  0.93042839     0.15190
C753        C  0.55747400  0.27101939  0.90104894    -0.14410
C754        C  0.57808713  0.23922337  0.91372073    -0.29580
H755        H  0.56800133  0.30119889  0.90691939     0.14620
H756        H  0.56644983  0.20917764  0.90939579     0.15190
C757        C  0.73737909  0.09524667  0.12132264    -0.14410
C758        C  0.71533134  0.10412379  0.08951561    -0.29580
H759        H  0.75541410  0.11857028  0.13469728     0.14620
H760        H  0.69500663  0.08200030  0.07750822     0.15190
C761        C  0.74298806  0.44463668  0.11463788    -0.14410
C762        C  0.76397671  0.43498110  0.08315938    -0.29580
H763        H  0.72475286  0.42194730  0.12825358     0.14620
H764        H  0.78469296  0.45641001  0.07117968     0.15190
C765        C  0.99334121  0.25266294  0.73611498    -0.11250
C766        C  0.99149863  0.25366694  0.77097758    -0.12810
C767        C  0.75111983  0.01817603  0.72839158    -0.11250
C768        C  0.74858768  0.01938504  0.76319961    -0.12810
C769        C  0.74359258  0.01541649  0.27873228    -0.11250
C770        C  0.74245080  0.01651966  0.24353994    -0.12810
C771        C  0.98828009  0.25401405  0.23163298    -0.11250
C772        C  0.98743614  0.25329694  0.26648929    -0.12810
C773        C  0.49873747  0.33239075  0.61657576    -0.14410
C774        C  0.52142353  0.34195608  0.58614606    -0.29580
H775        H  0.97704501  0.35313629  0.62704770     0.14620
H776        H  0.54246100  0.32052215  0.57520336     0.15190
C777        C  0.97642782  0.17183994  0.57968907    -0.14410
C778        C  0.99810583  0.18041143  0.61172189    -0.29580
H779        H  0.95577790  0.19358058  0.56796607     0.14620
H780        H  0.51969012  0.15875784  0.62646756     0.15190
C781        C  0.52163532  0.34304623  0.41456862    -0.14410
C782        C  0.49927745  0.33445923  0.38303555    -0.29580
H783        H  0.54203671  0.32106831  0.42629397     0.14620
H784        H  0.99100409  0.35798524  0.36905547     0.15190
C785        C  0.98908033  0.17686003  0.42576819    -0.14410
C786        C  0.97018595  0.18617041  0.39267240    -0.29580
H787        H  0.45696284  0.19685840  0.42779640     0.14620
H788        H  0.95156840  0.16361637  0.37875060     0.15190
C789        C  0.67673521  0.01244046  0.60540986    -0.14410
C790        C  0.66311461  0.48288256  0.58371832    -0.29580
H791        H  0.65539008  0.03336114  0.61674238     0.14620
H792        H  0.68277362  0.45947501  0.57411535     0.15190
C793        C  0.82557762  0.01123769  0.60652355    -0.14410
C794        C  0.83465714  0.03210917  0.57435626    -0.29580
H795        H  0.84812169  0.99322693  0.62073391     0.14620
H796        H  0.81347746  0.05270828  0.56161854     0.15190
C797        C  0.66047448  0.48087651  0.41808714    -0.14410
C798        C  0.68202316  0.98232862  0.40735968    -0.29580
H799        H  0.63897522  0.97552057  0.36319489     0.14620
H800        H  0.64395202  0.51553245  0.36960733     0.15190
C801        C  0.85159559  0.03748450  0.39152090    -0.14410
C802        C  0.81507708  0.04227690  0.40480365    -0.29580
H803        H  0.85550553  0.02724018  0.36197090     0.14620
H804        H  0.81148877  0.04823400  0.43554436     0.15190
O805        O  0.90584654  0.00082500  0.41107288    -0.73270
O806        O  0.88887280  0.55408919  0.44965769    -0.52170
C807        C  0.88168468  0.52853247  0.42231901     0.80460
O808        O  0.98563390  0.90262190  0.57204436    -0.57870
O809        O  0.54732933  0.89437405  0.53946229    -0.50900
C810        C  0.52102569  0.88375054  0.56415541     0.72480
O811        O  0.89380095  0.99678734  0.56637931    -0.72430
O812        O  0.88344041  0.55163950  0.53613955    -0.52990
C813        C  0.87232573  0.52411847  0.55989080     0.78480
O814        O  0.99076801  0.90189895  0.42502680    -0.57570
O815        O  0.54415429  0.89315941  0.45711643    -0.50690
C816        C  0.51633325  0.88235158  0.43350489     0.75070
Zr817      Zr  0.96154242  0.96589733  0.43866729     2.54710
O818        O  0.90695159  0.91835551  0.43662360    -0.78130
O819        O  0.97141979  0.96310950  0.36894270    -0.91550
Zr820      Zr  0.95665636  0.96601677  0.55344067     2.64680
O821        O  0.90439902  0.91580304  0.55550164    -0.96510
O822        O  0.96001378  0.97179501  0.62381648    -0.78570
O823        O  0.93127139  0.99256346  0.49436638    -0.81930
O824        O  0.98466492  0.93772756  0.49755390    -2.16630
O825        O  0.60109469  0.51494532  0.42687307    -0.65320
O826        O  0.60607892  0.95684122  0.44861071    -0.49880
C827        C  0.61188400  0.98064776  0.41970509     0.73450
O828        O  0.51249378  0.61232864  0.57202101    -0.58220
O829        O  0.94960758  0.61949644  0.53854423    -0.50200
C830        C  0.97692957  0.63152237  0.56225603     0.75260
O831        O  0.60291092  0.51688110  0.57475914    -0.69620
O832        O  0.61403854  0.96118999  0.53597380    -0.48290
C833        C  0.62566611  0.98901923  0.55949237     0.76640
O834        O  0.51204096  0.61215541  0.42832906    -0.64950
O835        O  0.95191241  0.61988649  0.45831241    -0.52150
C836        C  0.97993826  0.63141032  0.43607964     0.75020
Zr837      Zr  0.54037925  0.54768740  0.44390500     2.77540
O838        O  0.59205870  0.59852097  0.44184496    -0.95700
O839        O  0.53451811  0.54429159  0.37354527    -0.76520
Zr840      Zr  0.53975044  0.54691793  0.55897818     2.70070
O841        O  0.59119094  0.59701389  0.56912358    -0.77770
O842        O  0.53088027  0.53958196  0.62852704    -0.96850
Zr843      Zr  0.94290407  0.56015815  0.49764766     2.21500
Zr844      Zr  0.55366957  0.95266024  0.49684595     2.11130
O845        O  0.56718528  0.52063793  0.50174620    -2.45540
O846        O  0.51443647  0.57551513  0.50105946    -0.77560
O847        O  0.52480414  0.97996768  0.43916140    -0.69750
O848        O  0.96884654  0.53397640  0.55738047    -2.30710
O849        O  0.97183594  0.53318678  0.44066550    -2.26920
O850        O  0.52863104  0.97986251  0.55564528    -0.71510
H851        H  0.97902399  0.90939367  0.49749322     0.80480
H852        H  0.95638381  0.54621985  0.57936085     0.81570
H853        H  0.59524285  0.52559718  0.50196337     0.83800
H854        H  0.96111512  0.54537905  0.41744649     0.81400
H855        H  0.94433452  0.99579486  0.62992747     0.44440
H856        H  0.54330788  0.51367168  0.63505708     0.43410
H857        H  0.59951640  0.60429349  0.54263621     0.43090
H858        H  0.61290187  0.58882808  0.45985337     0.41020
H859        H  0.53996189  0.51600365  0.36718100     0.44150
H860        H  0.96670676  0.99072668  0.35968333     0.38940
H861        H  0.89775305  0.91705913  0.46370068     0.45050
H862        H  0.91338839  0.89388811  0.53855106     0.41470
H863        H  0.60351773  0.59595256  0.41573685     0.46390
H864        H  0.94862040  0.94750251  0.35878932     0.45110
H865        H  0.90592445  0.90463588  0.58207471     0.45250
H866        H  0.54875066  0.55991871  0.64021367     0.45600
C867        C  0.99736613  0.71935555  0.36719767     0.05160
C868        C  0.99515645  0.71968124  0.32659738    -0.10990
C869        C  0.99335848  0.75592045  0.30656022     0.02660
C870        C  0.99471233  0.79195100  0.32688083    -0.09520
C871        C  0.99869215  0.79210358  0.36733248     0.05150
C872        C  0.99955908  0.75568328  0.38767313    -0.08940
H873        H  0.99426848  0.69172191  0.31066521     0.10740
H874        H  0.99323738  0.82001279  0.31112665     0.08270
H875        H  0.00177094  0.75557918  0.41904242     0.08120
C876        C  0.70790921  0.50755317  0.36971520     0.05160
C877        C  0.74056155  0.51553936  0.39410813    -0.10990
C878        C  0.77717206  0.52654988  0.37858423     0.02660
C879        C  0.78055442  0.52924216  0.33778706    -0.09520
C880        C  0.74817103  0.52052177  0.31343740     0.05150
C881        C  0.71196064  0.51028823  0.32949179    -0.08940
H882        H  0.73722076  0.51421030  0.42527763     0.10740
H883        H  0.80781367  0.53825994  0.32447045     0.08270
H884        H  0.68670139  0.50460491  0.31059213     0.08120
C885        C  0.71422309  0.50744510  0.63058855     0.05160
C886        C  0.74946806  0.50665768  0.60957399    -0.10990
C887        C  0.78605717  0.50728032  0.62942937     0.02660
C888        C  0.78701542  0.50776842  0.67012962    -0.09520
C889        C  0.75202243  0.50945654  0.69088126     0.05150
C890        C  0.71582906  0.50972104  0.67111936    -0.08940
H891        H  0.74841887  0.50562305  0.57818358     0.10740
H892        H  0.81506582  0.50750996  0.68562808     0.08270
H893        H  0.68874124  0.51126597  0.68735311     0.08120
C894        C  0.99189481  0.72009940  0.63195735     0.05160
C895        C  0.99389344  0.75665748  0.61182239    -0.10990
C896        C  0.99251522  0.79297922  0.63233498     0.02660
C897        C  0.98819088  0.79244428  0.67267560    -0.09520
C898        C  0.98710278  0.75619713  0.69278573     0.05150
C899        C  0.98940350  0.72013569  0.67251281    -0.08940
H900        H  0.99649905  0.75682219  0.58055468     0.10740
H901        H  0.98641461  0.82037115  0.68853171     0.08270
H902        H  0.98882954  0.69204433  0.68824145     0.08120
C903        C  0.74117959  0.98260409  0.13926110     0.05160
C904        C  0.74148278  0.98196955  0.18005925    -0.10990
C905        C  0.74940701  0.52115521  0.19489176     0.02660
C906        C  0.74726384  0.55703220  0.17418428    -0.09520
C907        C  0.74300261  0.55686325  0.13363885     0.05150
C908        C  0.74261912  0.52017596  0.11357900    -0.08940
H909        H  0.74239446  0.95357344  0.19524253     0.10740
H910        H  0.74826001  0.58522870  0.18971959     0.08270
H911        H  0.74004144  0.51981851  0.08223711     0.08120
O912        O  0.72563162  0.87625899  0.92763255    -0.73270
O913        O  0.78453435  0.88612097  0.95917974    -0.52170
C914        C  0.75658734  0.89712894  0.93588516     0.80460
O915        O  0.63488612  0.77974318  0.07157621    -0.57870
O916        O  0.62551471  0.72118778  0.03858445    -0.50900
C917        C  0.61446068  0.74855027  0.06228747     0.72480
O918        O  0.72673756  0.87555045  0.07395028    -0.72430
O919        O  0.78473665  0.88586328  0.04261639    -0.52990
C920        C  0.75756485  0.89651971  0.06629737     0.78480
O921        O  0.63477627  0.77938417  0.92380798    -0.57570
O922        O  0.62828764  0.71873282  0.95370403    -0.50690
C923        C  0.61619654  0.74648513  0.93054841     0.75070
Zr924      Zr  0.69686688  0.81151554  0.94182948     2.54710
O925        O  0.64494360  0.86130303  0.93791443    -0.78190
O926        O  0.70219847  0.80764359  0.87159046    -0.91550
Zr927      Zr  0.69730164  0.81157294  0.05657009     2.64680
O928        O  0.64732324  0.86349761  0.05858547    -0.96510
O929        O  0.70123628  0.80589808  0.12691327    -0.78570
O930        O  0.72355566  0.83977276  0.99948680    -0.81930
O931        O  0.66978985  0.78424455  0.99883338    -2.16630
O932        O  0.74726405  0.66742189  0.92421670    -0.65320
O933        O  0.69105115  0.65561527  0.95792065    -0.49880
C934        C  0.71726538  0.64579023  0.93312013     0.73450
O935        O  0.84382727  0.75856343  0.06935031    -0.58220
O936        O  0.85210734  0.81935223  0.04051337    -0.50200
C937        C  0.86415209  0.79012810  0.06192539     0.75260
O938        O  0.75002259  0.66637662  0.07349250    -0.69620
O939        O  0.69213199  0.65529566  0.04069043    -0.48290
C940        C  0.71966868  0.64484426  0.06480092     0.76640
O941        O  0.84239178  0.75916035  0.93035267    -0.64950
O942        O  0.85147732  0.81928460  0.96049262    -0.52150
C943        C  0.86289481  0.79056654  0.93837235     0.75020
Zr944      Zr  0.77847472  0.73025657  0.94261722     2.77540
O945        O  0.82894495  0.67899756  0.93817999    -0.95700
O946        O  0.77458677  0.73845938  0.87252656    -0.76520
Zr947      Zr  0.77889420  0.73052768  0.05761197     2.70070
O948        O  0.82827836  0.67904644  0.06824101    -0.77770
O949        O  0.77328964  0.74077613  0.12717280    -0.96850
Zr950      Zr  0.79272071  0.82734865  0.00037827     2.21500
Zr951      Zr  0.68402603  0.71426061  0.99902109     2.11130
O952        O  0.75317478  0.70170859  0.99982876    -2.45540
O953        O  0.80578496  0.75742613  0.00039471    -0.77560
O954        O  0.70990270  0.74204365  0.94079717    -0.69750
O955        O  0.76617925  0.79996364  0.05864753    -2.30710
O956        O  0.76570742  0.79981531  0.94150390    -2.26920
O957        O  0.71017520  0.74196047  0.05801256    -0.71510
H958        H  0.64172609  0.78884927  0.99820155     0.80480
H959        H  0.77827249  0.81210654  0.08131843     0.81570
H960        H  0.75857000  0.67338935  0.99976792     0.83800
H961        H  0.77761065  0.81205621  0.91913070     0.81400
H962        H  0.72557640  0.82058295  0.13449660     0.44440
H963        H  0.74798690  0.72783170  0.13394826     0.43410
H964        H  0.83490594  0.66989435  0.04184550     0.43090
H965        H  0.82022946  0.65734867  0.95573715     0.41020
H966        H  0.74728960  0.73042565  0.86541506     0.44150
H967        H  0.72699023  0.82195496  0.86555746     0.38940
H968        H  0.64306067  0.87175228  0.96466996     0.45050
H969        H  0.62633880  0.85440799  0.04031812     0.41470
H970        H  0.82572515  0.66772198  0.91177251     0.46390
H971        H  0.68112067  0.82541003  0.86160839     0.45110
H972        H  0.63553669  0.86091864  0.08456244     0.45250
H973        H  0.79369741  0.72322322  0.13877275     0.45600
C974        C  0.95357351  0.76643807  0.12749943     0.05160
C975        C  0.95378726  0.76221460  0.16793776    -0.10990
C976        C  0.98936305  0.76166919  0.18876125     0.02660
C977        C  0.52588310  0.76419797  0.16813306    -0.09520
C978        C  0.52590196  0.76626527  0.12760321     0.05150
C979        C  0.98952098  0.76838686  0.10774466    -0.08940
H980        H  0.92617747  0.75982892  0.18324808     0.10740
H981        H  0.55357438  0.76423836  0.18427432     0.08270
H982        H  0.98965142  0.77073634  0.07641617     0.08120
C983        C  0.73885511  0.98429751  0.86564000     0.05160
C984        C  0.74237793  0.98406030  0.82522932    -0.10990
C985        C  0.74713630  0.51617526  0.80865672     0.02660
C986        C  0.74442304  0.55361923  0.82641417    -0.09520
C987        C  0.73806836  0.55654664  0.86641346     0.05150
C988        C  0.73584316  0.52143789  0.88883992    -0.08940
H989        H  0.74445372  0.95585393  0.80989383     0.10740
H990        H  0.74663644  0.58052978  0.80898803     0.08270
H991        H  0.73173930  0.52317054  0.91987881     0.08120
C992        C  0.95003099  0.76692439  0.87187757     0.05160
C993        C  0.94933206  0.76239614  0.83140768    -0.10990
C994        C  0.98445570  0.76069814  0.81087356     0.02660
C995        C  0.52287561  0.76121368  0.83511187    -0.09520
C996        C  0.51998816  0.76735365  0.87516889     0.05150
C997        C  0.98645967  0.76795515  0.89196073    -0.08940
H998        H  0.92136077  0.76075115  0.81582721     0.10740
H999        H  0.55163810  0.75852569  0.82210729     0.08270
H1000       H  0.98731410  0.77060806  0.92326582     0.08120
C1001       C  0.71392126  0.60615526  0.91436100    -0.14410
C1002       C  0.73669697  0.59674390  0.88408812    -0.29580
H1003       H  0.69352490  0.58425463  0.92605801     0.14620
H1004       H  0.75495396  0.61975437  0.87099046     0.15190
C1005       C  0.75962732  0.93675378  0.91712546    -0.14410
C1006       C  0.73678934  0.94572070  0.88611191    -0.29580
H1007       H  0.78104727  0.95837043  0.92814918     0.14620
H1008       H  0.71768340  0.92293307  0.87330186     0.15190
C1009       C  0.90424488  0.79216458  0.07947417    -0.14410
C1010       C  0.91518738  0.76561390  0.10696319    -0.29580
H1011       H  0.92440803  0.81573175  0.07068933     0.14620
H1012       H  0.89388162  0.74392080  0.11748335     0.15190
C1013       C  0.57507553  0.74474489  0.07969747    -0.14410
C1014       C  0.56408323  0.76954295  0.10821432    -0.29580
H1015       H  0.55509415  0.72138529  0.06946212     0.14620
H1016       H  0.58501629  0.79109547  0.12025189     0.15190
C1017       C  0.91197790  0.76710976  0.89209195    -0.14410
C1018       C  0.90246399  0.79278037  0.92064569    -0.29580
H1019       H  0.88974483  0.74650312  0.88075822     0.14620
H1020       H  0.92343657  0.81542961  0.93040924     0.15190
C1021       C  0.55611842  0.77192298  0.89893426    -0.14410
C1022       C  0.57816712  0.74048223  0.90991739    -0.29580
H1023       H  0.56502272  0.80211090  0.90695155     0.14620
H1024       H  0.56798166  0.71022547  0.90381480     0.15190
C1025       C  0.74216982  0.59580760  0.11333411    -0.14410
C1026       C  0.71750847  0.60493848  0.08358477    -0.29580
H1027       H  0.76163365  0.61882531  0.12519205     0.14620
H1028       H  0.69600720  0.58312209  0.07314560     0.15190
C1029       C  0.74012160  0.94391075  0.11813164    -0.14410
C1030       C  0.76124350  0.93588959  0.08616816    -0.29580
H1031       H  0.72239897  0.92024703  0.13084177     0.14620
H1032       H  0.78147590  0.95817920  0.07487974     0.15190
C1033       C  0.98455183  0.75625556  0.73437823    -0.11250
C1034       C  0.98369418  0.75766532  0.76926535    -0.12810
C1035       C  0.75289656  0.51136812  0.73252985    -0.11250
C1036       C  0.75135160  0.51342243  0.76733808    -0.12810
C1037       C  0.75155890  0.52188018  0.27176339    -0.11250
C1038       C  0.75166263  0.52176410  0.23673023    -0.12810
C1039       C  0.98945765  0.75833746  0.23022027    -0.11250
C1040       C  0.99069535  0.75643868  0.26502986    -0.12810
C1041       C  0.50211527  0.83440280  0.61376397    -0.14410
C1042       C  0.52467881  0.84408856  0.58321994    -0.29580
H1043       H  0.97262180  0.85438589  0.62320932     0.14620
H1044       H  0.54553896  0.82263561  0.57200277     0.15190
C1045       C  0.97296326  0.67135232  0.58043507    -0.14410
C1046       C  0.99492221  0.68134012  0.61186156    -0.29580
H1047       H  0.95148158  0.69223709  0.56867068     0.14620
H1048       H  0.52321314  0.66127330  0.62392398     0.15190
C1049       C  0.51880944  0.84253048  0.41530738    -0.14410
C1050       C  0.49403579  0.83223967  0.38614476    -0.29580
H1051       H  0.54116015  0.82171302  0.42547735     0.14620
H1052       H  0.97959883  0.85362053  0.37471782     0.15190
C1053       C  0.97690563  0.67113839  0.41766869    -0.14410
C1054       C  0.99941190  0.68053896  0.38718027    -0.29580
H1055       H  0.45765581  0.69427264  0.42946815     0.14620
H1056       H  0.01822197  0.65799063  0.37449421     0.15190
C1057       C  0.67515812  0.50887525  0.61133190    -0.14410
C1058       C  0.66572333  0.98669431  0.57712136    -0.29580
H1059       H  0.65455634  0.53058411  0.62260703     0.14620
H1060       H  0.68598890  0.96392464  0.56733408     0.15190
C1061       C  0.82389127  0.50493928  0.60894233    -0.14410
C1062       C  0.83304590  0.52742736  0.57784002    -0.29580
H1063       H  0.84623244  0.48583370  0.62203156     0.14620
H1064       H  0.81201870  0.54890678  0.56631752     0.15190
C1065       C  0.64545463  0.97463122  0.39400885    -0.14410
C1066       C  0.66809593  0.50138442  0.38540795    -0.29580
H1067       H  0.68356447  0.46404881  0.43276419     0.14620
H1068       H  0.68627995  0.98411224  0.43865413     0.15190
C1069       C  0.84871733  0.53468437  0.39493202    -0.14410
C1070       C  0.81099980  0.53368130  0.40607013    -0.29580
H1071       H  0.85595411  0.53115850  0.36468941     0.14620
H1072       H  0.80510594  0.53360578  0.43697442     0.15190
loop_ 
_geom_bond_atom_site_label_1 
_geom_bond_atom_site_label_2 
_geom_bond_distance 
_geom_bond_site_symmetry_2 
_ccdc_geom_bond_type 
O1          Zr13   2.430       .  S
O1          C271   1.287       .  A
O2          Zr39   2.435       .  S
O2            C3   1.287       .  A
C3          O269   1.286   1_545  A
C3          C265   1.470       .  S
O4          Zr16   2.429       .  S
O4          C542   1.286       .  A
O5          Zr40   2.441       .  S
O5            C6   1.289       .  A
C6          O540   1.286   1_455  A
C6          C238   1.480       .  S
O7          Zr16   2.424       .  S
O7          C277   1.286       .  A
O8          Zr39   2.446       .  S
O8            C9   1.290       .  A
C9          O275   1.287   1_545  A
C9          C258   1.483       .  S
O10         Zr13   2.421       .  S
O10         C548   1.286       .  A
O11         Zr40   2.443       .  S
O11          C12   1.289       .  A
C12         O546   1.285   1_455  A
C12         C245   1.476       .  S
Zr13         O14   2.433       .  S
Zr13         O15   2.436       .  S
Zr13         O19   2.365       .  S
Zr13         O20   2.367       .  S
Zr13        O579   2.370       .  S
Zr13        O313   2.366       .  S
O14          H57   0.990       .  S
O15          H56   0.990       .  S
O15          H60   0.990       .  S
Zr16         O17   2.437       .  S
Zr16         O18   2.436       .  S
Zr16         O20   2.366       .  S
Zr16         O19   2.370       .  S
Zr16        O312   2.370       .  S
Zr16        O582   2.372       .  S
O17          H58   0.990       .  S
O17          H61   0.990       .  S
O18          H51   0.990       .  S
O19        Zr307   2.383       .  S
O20        Zr576   2.391       .  S
O20          H47   0.966       .  S
O21         Zr33   2.420       .  S
O21         C291   1.285   1_545  A
O22         Zr40   2.439       .  S
O22          C23   1.288       .  A
C23         O289   1.285       .  A
C23         C261   1.477       .  S
O24         Zr36   2.420       .  S
O24         C562   1.286   1_455  A
O25         Zr39   2.440       .  S
O25          C26   1.289       .  A
C26         O560   1.286       .  A
C26         C241   1.479       .  S
O27         Zr36   2.431       .  S
O27         C297   1.287   1_545  A
O28         Zr40   2.440       .  S
O28          C29   1.289       .  A
C29         O295   1.288       .  A
C29         C254   1.481       .  S
O30         Zr33   2.427       .  S
O30         C568   1.284   1_455  A
O31         Zr39   2.437       .  S
O31          C32   1.288       .  A
C32         O566   1.285       .  A
C32         C249   1.477       .  S
Zr33         O34   2.437       .  S
Zr33         O35   2.435       .  S
Zr33         O41   2.361       .  S
Zr33         O42   2.360       .  S
Zr33        O581   2.356   1_455  S
Zr33        O311   2.369   1_545  S
O34          H54   0.990       .  S
O34          H59   0.990       .  S
O35          H55   0.990       .  S
Zr36         O37   2.434       .  S
Zr36         O38   2.434       .  S
Zr36         O42   2.363       .  S
Zr36         O41   2.366       .  S
Zr36        O314   2.366   1_545  S
Zr36        O580   2.371   1_455  S
O37          H53   0.990       .  S
O38          H52   0.990       .  S
O38          H62   0.990       .  S
Zr39         O44   2.393       .  S
Zr39         O45   2.390       .  S
Zr39        O287   2.384   1_545  S
Zr39        O578   2.379       .  S
Zr40         O43   2.389       .  S
Zr40         O46   2.392       .  S
Zr40        O556   2.388   1_455  S
Zr40        O309   2.390       .  S
O41        Zr308   2.392   1_545  S
O41          H49   0.965       .  S
O42        Zr575   2.386   1_455  S
O43        Zr549   2.364   1_455  S
O43        Zr301   2.368       .  S
O44        Zr284   2.367   1_545  S
O44        Zr572   2.368       .  S
O44          H48   0.966       .  S
O45        Zr281   2.368   1_545  S
O45        Zr569   2.358       .  S
O45          H50   0.966       .  S
O46        Zr552   2.372   1_455  S
O46        Zr304   2.367       .  S
C63         C250   1.471       .  S
C63          C64   1.400       .  A
C63          C68   1.406       .  A
C64          C65   1.395       .  A
C64          H69   1.085       .  S
C65          C66   1.397       .  A
C65         C236   1.435       .  S
C66          C67   1.402       .  A
C66          H70   1.085       .  S
C67         C782   1.475       .  S
C67          C68   1.407       .  A
C68          H71   1.083       .  S
C72         C262   1.475   1_545  S
C72          C73   1.404       .  A
C72          C77   1.401       .  A
C73          C74   1.401       .  A
C73          H78   1.083   1_545  S
C74         C266   1.468       .  S
C74          C75   1.404       .  A
C75          C76   1.400       .  A
C75          H79   1.084       .  S
C76          C77   1.398       .  A
C76         C233   1.438       .  S
C77          H80   1.085       .  S
C81         C253   1.474       .  S
C81          C82   1.408       .  A
C81          C86   1.399       .  A
C82          C83   1.410       .  A
C82          H87   1.083       .  S
C83         C257   1.479       .  S
C83          C84   1.404       .  A
C84          C85   1.398       .  A
C84          H88   1.085       .  S
C85          C86   1.395       .  A
C85         C231   1.437       .  S
C86          H89   1.085       .  S
C90         C242   1.476       .  S
C90          C91   1.407       .  A
C90          C95   1.403       .  A
C91          C92   1.407       .  A
C91          H96   1.083       .  S
C92         C773   1.479       .  S
C92          C93   1.403       .  A
C93          C94   1.399       .  A
C93          H97   1.085       .  S
C94          C95   1.398       .  A
C94         C229   1.442       .  S
C95          H98   1.085       .  S
C99         C225   1.477       .  S
C99         C100   1.403       .  A
C99         C372   1.408       .  A
C100        C369   1.399       .  A
C100        H105   1.085       .  S
C101        C102   1.395       .  A
C101        C368   1.398   1_545  A
C101        C234   1.439       .  S
C102        C103   1.402       .  A
C102        H106   1.085       .  S
C103        C221   1.474       .  S
C103        C104   1.407       .  A
C104        C367   1.408   1_545  A
C104        H107   1.083       .  S
O108       Zr120   2.420       .  S
O108        C110   1.286       .  A
O109       Zr146   2.438   1_556  S
O109        C110   1.288       .  A
C110        C201   1.478       .  S
O111       Zr123   2.429       .  S
O111        C113   1.287       .  A
O112       Zr147   2.443   1_554  S
O112        C113   1.289       .  A
C113        C209   1.480       .  S
O114       Zr123   2.431       .  S
O114        C116   1.287       .  A
O115       Zr146   2.439       .  S
O115        C116   1.289       .  A
C116        C226   1.480       .  S
O117       Zr120   2.429       .  S
O117        C119   1.287       .  A
O118       Zr147   2.436       .  S
O118        C119   1.288       .  A
C119        C218   1.474       .  S
Zr120       O121   2.433       .  S
Zr120       O122   2.436       .  S
Zr120       O126   2.365   1_556  S
Zr120       O127   2.363       .  S
Zr120       O150   2.367       .  S
Zr120       O152   2.370       .  S
O121        H164   0.990       .  S
O122        H163   0.990       .  S
O122        H167   0.990       .  S
Zr123       O124   2.436       .  S
Zr123       O125   2.436       .  S
Zr123       O127   2.370   1_554  S
Zr123       O126   2.365       .  S
Zr123       O151   2.371       .  S
Zr123       O153   2.371       .  S
O124        H165   0.990       .  S
O124        H168   0.990       .  S
O125        H158   0.990       .  S
O126       Zr146   2.385       .  S
O127       Zr147   2.392       .  S
O127        H154   0.966       .  S
O128       Zr140   2.424       .  S
O128        C130   1.286       .  A
O129       Zr147   2.439       .  S
O129        C130   1.288       .  A
C130        C197   1.479       .  S
O131       Zr143   2.412       .  S
O131        C133   1.284       .  A
O132       Zr146   2.449       .  S
O132        C133   1.290       .  A
C133        C205   1.483       .  S
O134       Zr143   2.415       .  S
O134        C136   1.284       .  A
O135       Zr147   2.446   1_554  S
O135        C136   1.289       .  A
C136        C222   1.481       .  S
O137       Zr140   2.420       .  S
O137        C139   1.285       .  A
O138       Zr146   2.446   1_556  S
O138        C139   1.290       .  A
C139        C214   1.481       .  S
Zr140       O141   2.436       .  S
Zr140       O142   2.435       .  S
Zr140       O148   2.365   1_556  S
Zr140       O149   2.365   1_556  S
Zr140       O152   2.366       .  S
Zr140       O150   2.366       .  S
O141        H161   0.990       .  S
O141        H166   0.990       .  S
O142        H162   0.990       .  S
Zr143       O144   2.433       .  S
Zr143       O145   2.435       .  S
Zr143       O149   2.365       .  S
Zr143       O148   2.364       .  S
Zr143       O153   2.363       .  S
Zr143       O151   2.363       .  S
O144        H160   0.990       .  S
O145        H159   0.990       .  S
O145        H169   0.990       .  S
Zr146       O149   2.380       .  S
Zr146       O151   2.393       .  S
Zr146       O152   2.394   1_554  S
Zr147       O148   2.386   1_556  S
Zr147       O150   2.389       .  S
Zr147       O153   2.391   1_556  S
O148        H156   0.965       .  S
O151        H155   0.966       .  S
O152        H157   0.966       .  S
C170        C206   1.469       .  S
C170        C171   1.400       .  A
C170        C175   1.404       .  A
C171        C172   1.397       .  A
C171        H176   1.085       .  S
C172        C709   1.396       .  A
C172        C235   1.435       .  S
C173        C174   1.402       .  A
C173        C708   1.397   1_455  A
C173        H177   1.085       .  S
C174        C210   1.474       .  S
C174        C711   1.408   1_455  A
C175        C710   1.411       .  A
C175        H178   1.083       .  S
C179        C202   1.469       .  S
C179        C180   1.400       .  A
C179        C452   1.405       .  A
C180        C449   1.395       .  A
C180        H185   1.085       .  S
C181        C182   1.397       .  A
C181        C448   1.396   1_545  A
C181        C232   1.437       .  S
C182        C183   1.403       .  A
C182        H186   1.085       .  S
C183        C198   1.476       .  S
C183        C184   1.407       .  A
C184        C447   1.405   1_545  A
C184        H187   1.084       .  S
C188        C213   1.481       .  S
C188        C189   1.405       .  A
C188        C193   1.407       .  A
C189        C190   1.400       .  A
C189        H194   1.085       .  S
C190        C727   1.399       .  A
C190        C230   1.442       .  S
C191        C192   1.401       .  A
C191        C726   1.399   1_455  A
C191        H195   1.084       .  S
C192        C217   1.468       .  S
C192        C729   1.402   1_455  A
C193        C728   1.404       .  A
C193        H196   1.083       .  S
C197        C198   1.347       .  D
C197        H199   1.086       .  S
C198        H200   1.087       .  S
C201        C202   1.346       .  D
C201        H203   1.087       .  S
C202        H204   1.087       .  S
C205        C206   1.349       .  D
C205        H207   1.086       .  S
C206        H208   1.086       .  S
C209        C210   1.346       .  D
C209        H211   1.087       .  S
C210        H212   1.087       .  S
C213        C214   1.349       .  D
C213        H215   1.087       .  S
C214        H216   1.086       .  S
C217        C218   1.344       .  D
C217        H219   1.087       .  S
C218        H220   1.087       .  S
C221        C222   1.349       .  D
C221        H223   1.087       .  S
C222        H224   1.086       .  S
C225        C226   1.347       .  D
C225        H227   1.087       .  S
C226        H228   1.087       .  S
C229        C230   1.207       .  T
C231        C232   1.204       .  T
C233        C234   1.205       .  T
C235        C236   1.203       .  T
C237        C628   1.475       .  S
C237        C238   1.347   1_655  D
C237        H775   1.087       .  S
C238        H240   1.086       .  S
H239        C773   1.087       .  S
C241        C242   1.347       .  D
C241        H243   1.086       .  S
C242        H780   1.087       .  S
H244        C778   1.087   1_455  S
C245        C246   1.346       .  D
C245        H247   1.086       .  S
C246        C603   1.474   1_455  S
C246        H784   1.088   1_455  S
H248        C782   1.087       .  S
C249        C250   1.346       .  D
C249        H787   1.086       .  S
C250        H252   1.087       .  S
H251        C785   1.086   1_455  S
C253        C522   1.346   1_545  D
C253        H255   1.087       .  S
C254        C521   1.346       .  D
C254        H256   1.087       .  S
C257        C258   1.348       .  D
C257        H259   1.087   1_545  S
C258        H260   1.086       .  S
C261        C530   1.347       .  D
C261        H531   1.086       .  S
C262        C529   1.347       .  D
C262        H532   1.088   1_565  S
H263        C529   1.086       .  S
H264        C530   1.087       .  S
C265        C266   1.342       .  D
C265        H267   1.087       .  S
C266        H268   1.087   1_545  S
O269       Zr281   2.425       .  S
O270       Zr307   2.436       .  S
O270        C271   1.288       .  A
C271        C533   1.471       .  S
O272       Zr284   2.430       .  S
O272        C810   1.287       .  A
O273       Zr308   2.443       .  S
O273        C274   1.289       .  A
C274        O808   1.286   1_455  A
C274        C506   1.480       .  S
O275       Zr284   2.428       .  S
O276       Zr307   2.447       .  S
O276        C277   1.290       .  A
C277        C526   1.483       .  S
O278       Zr281   2.425       .  S
O278        C816   1.287       .  A
O279       Zr308   2.442       .  S
O279        C280   1.289       .  A
C280        O814   1.285   1_455  A
C280        C513   1.478       .  S
Zr281       O282   2.433       .  S
Zr281       O283   2.435       .  S
Zr281       O287   2.364       .  S
Zr281       O288   2.365       .  S
Zr281       O847   2.362       .  S
O282        H325   0.990       .  S
O283        H324   0.990       .  S
O283        H328   0.990       .  S
Zr284       O285   2.437       .  S
Zr284       O286   2.436       .  S
Zr284       O288   2.364       .  S
Zr284       O287   2.369       .  S
Zr284       O850   2.373       .  S
O285        H326   0.990       .  S
O285        H329   0.990       .  S
O286        H319   0.990       .  S
O288       Zr844   2.394       .  S
O288        H315   0.965       .  S
O289       Zr301   2.421       .  S
O290       Zr308   2.434       .  S
O290        C291   1.287       .  A
C291        C529   1.474       .  S
O292       Zr304   2.424       .  S
O292        C830   1.286   1_455  A
O293       Zr307   2.441       .  S
O293        C294   1.289       .  A
C294        O828   1.286       .  A
C294        C509   1.482       .  S
O295       Zr304   2.433       .  S
O296       Zr308   2.443       .  S
O296        C297   1.289       .  A
C297        C522   1.482       .  S
O298       Zr301   2.421       .  S
O298        C836   1.286   1_455  A
O299       Zr307   2.432       .  S
O299        C300   1.287       .  A
C300        O834   1.286       .  A
C300        C517   1.475       .  S
Zr301       O302   2.436       .  S
Zr301       O303   2.435       .  S
Zr301       O309   2.360       .  S
Zr301       O310   2.364       .  S
Zr301       O849   2.356   1_455  S
O302        H322   0.990       .  S
O302        H327   0.990       .  S
O303        H323   0.990       .  S
Zr304       O305   2.434       .  S
Zr304       O306   2.434       .  S
Zr304       O310   2.367       .  S
Zr304       O309   2.366       .  S
Zr304       O848   2.371   1_455  S
O305        H321   0.990       .  S
O306        H320   0.990       .  S
O306        H330   0.990       .  S
Zr307       O846   2.380       .  S
Zr307       O312   2.393       .  S
Zr307       O313   2.390       .  S
Zr308       O824   2.387   1_455  S
Zr308       O311   2.391       .  S
Zr308       O314   2.391       .  S
O309        H317   0.965       .  S
O310       Zr843   2.387   1_455  S
O311       Zr817   2.363   1_455  S
O312       Zr840   2.367       .  S
O312        H316   0.966       .  S
O313       Zr837   2.359       .  S
O313        H318   0.966       .  S
O314       Zr820   2.373   1_455  S
C331        C518   1.472       .  S
C331        C332   1.402       .  A
C331        C336   1.406       .  A
C332        C333   1.396       .  A
C332        H337   1.085       .  S
C333        C334   1.395       .  A
C333        C504   1.434       .  S
C334        C335   1.399       .  A
C334        H338   1.085       .  S
C335       C1050   1.470       .  S
C335        C336   1.405       .  A
C336        H339   1.084       .  S
C340        C530   1.477       .  S
C340        C341   1.405       .  A
C340        C345   1.401       .  A
C341        C342   1.402       .  A
C341        H346   1.083       .  S
C342        C534   1.472       .  S
C342        C343   1.405       .  A
C343        C344   1.401       .  A
C343        H347   1.084       .  S
C344        C345   1.398       .  A
C344        C501   1.440       .  S
C345        H348   1.085       .  S
C349        C521   1.474       .  S
C349        C350   1.408       .  A
C349        C354   1.399       .  A
C350        C351   1.409       .  A
C350        H355   1.083       .  S
C351        C525   1.478       .  S
C351        C352   1.404       .  A
C352        C353   1.397       .  A
C352        H356   1.085       .  S
C353        C354   1.395       .  A
C353        C499   1.437       .  S
C354        H357   1.085       .  S
C358        C510   1.476       .  S
C358        C359   1.408       .  A
C358        C363   1.403       .  A
C359        C360   1.409       .  A
C359        H364   1.083       .  S
C360       C1041   1.481       .  S
C360        C361   1.405       .  A
C361        C362   1.399       .  A
C361        H365   1.085       .  S
C362        C363   1.397       .  A
C362        C497   1.443       .  S
C363        H366   1.085       .  S
C367        C493   1.475       .  S
C367        C368   1.403       .  A
C368        H373   1.085       .  S
C369        C370   1.396       .  A
C369        C502   1.440       .  S
C370        C371   1.402       .  A
C370        H374   1.085       .  S
C371        C489   1.476       .  S
C371        C372   1.407       .  A
C372        H375   1.083       .  S
O376       Zr388   2.423       .  S
O376        C378   1.286       .  A
O377       Zr414   2.434   1_556  S
O377        C378   1.288       .  A
C378        C469   1.476       .  S
O379       Zr391   2.430       .  S
O379        C381   1.287       .  A
O380       Zr415   2.438       .  S
O380        C381   1.288       .  A
C381        C477   1.479       .  S
O382       Zr391   2.425       .  S
O382        C384   1.286       .  A
O383       Zr414   2.441       .  S
O383        C384   1.289       .  A
C384        C494   1.480       .  S
O385       Zr388   2.429       .  S
O385        C387   1.287       .  A
O386       Zr415   2.441   1_556  S
O386        C387   1.289       .  A
C387        C486   1.481       .  S
Zr388       O389   2.433       .  S
Zr388       O390   2.435       .  S
Zr388       O394   2.367   1_556  S
Zr388       O395   2.363   1_556  S
Zr388       O418   2.367       .  S
Zr388       O420   2.367       .  S
O389        H432   0.990       .  S
O390        H431   0.990       .  S
O390        H435   0.990       .  S
Zr391       O392   2.436       .  S
Zr391       O393   2.436       .  S
Zr391       O395   2.365       .  S
Zr391       O394   2.367       .  S
Zr391       O419   2.370       .  S
Zr391       O421   2.370       .  S
O392        H433   0.990       .  S
O392        H436   0.990       .  S
O393        H426   0.990       .  S
O394       Zr414   2.384       .  S
O395       Zr415   2.390       .  S
O395        H422   0.965       .  S
O396       Zr408   2.420       .  S
O396        C398   1.285       .  A
O397       Zr415   2.441   1_556  S
O397        C398   1.289       .  A
C398        C465   1.479       .  S
O399       Zr411   2.416       .  S
O399        C401   1.285       .  A
O400       Zr414   2.443       .  S
O400        C401   1.289       .  A
C401        C473   1.481       .  S
O402       Zr411   2.418       .  S
O402        C404   1.285       .  A
O403       Zr415   2.448       .  S
O403        C404   1.290       .  A
C404        C490   1.482       .  S
O405       Zr408   2.425       .  S
O405        C407   1.286       .  A
O406       Zr414   2.444   1_556  S
O406        C407   1.290       .  A
C407        C482   1.481       .  S
Zr408       O409   2.436       .  S
Zr408       O410   2.435       .  S
Zr408       O416   2.367   1_556  S
Zr408       O417   2.364   1_556  S
Zr408       O420   2.365       .  S
Zr408       O418   2.369       .  S
O409        H429   0.990       .  S
O409        H434   0.990       .  S
O410        H430   0.990       .  S
Zr411       O412   2.433       .  S
Zr411       O413   2.435       .  S
Zr411       O417   2.365       .  S
Zr411       O416   2.365       .  S
Zr411       O421   2.366       .  S
Zr411       O419   2.364       .  S
O412        H428   0.990       .  S
O413        H427   0.990       .  S
O413        H437   0.990       .  S
Zr414       O417   2.379       .  S
Zr414       O419   2.393       .  S
Zr414       O420   2.392   1_554  S
Zr415       O416   2.388       .  S
Zr415       O418   2.393   1_554  S
Zr415       O421   2.392       .  S
O416        H424   0.965       .  S
O419        H423   0.966       .  S
O420        H425   0.966       .  S
C438        C474   1.472       .  S
C438        C439   1.402       .  A
C438        C443   1.407       .  A
C439        C440   1.395       .  A
C439        H444   1.085       .  S
C440        C977   1.395       .  A
C440        C503   1.434       .  S
C441        C976   1.395   1_455  A
C441        C442   1.399       .  A
C441        H445   1.085       .  S
C442        C478   1.471       .  S
C442        C979   1.407   1_455  A
C443        C978   1.407       .  A
C443        H446   1.084       .  S
C447        C470   1.471       .  S
C447        C448   1.400       .  A
C448        H453   1.085       .  S
C449        C450   1.397       .  A
C449        C500   1.437       .  S
C450        C451   1.403       .  A
C450        H454   1.085       .  S
C451        C466   1.475       .  S
C451        C452   1.407       .  A
C452        H455   1.083       .  S
C456        C481   1.482       .  S
C456        C457   1.405       .  A
C456        C461   1.408       .  A
C457        C458   1.401       .  A
C457        H462   1.084       .  S
C458        C995   1.399       .  A
C458        C498   1.443       .  S
C459        C994   1.396   1_455  A
C459        C460   1.401       .  A
C459        H463   1.085       .  S
C460        C485   1.473       .  S
C460        C997   1.408   1_455  A
C461        C996   1.404       .  A
C461        H464   1.083       .  S
C465        C466   1.348       .  D
C465        H467   1.086       .  S
C466        H468   1.087       .  S
C469        C470   1.345       .  D
C469        H471   1.087       .  S
C470        H472   1.087       .  S
C473        C474   1.348       .  D
C473        H475   1.086       .  S
C474        H476   1.087       .  S
C477        C478   1.345       .  D
C477        H479   1.087       .  S
C478        H480   1.087       .  S
C481        C482   1.349       .  D
C481        H483   1.087       .  S
C482        H484   1.086       .  S
C485        C486   1.346       .  D
C485        H487   1.087       .  S
C486        H488   1.087       .  S
C489        C490   1.349       .  D
C489        H491   1.087       .  S
C490        H492   1.086       .  S
C493        C494   1.347       .  D
C493        H495   1.087       .  S
C494        H496   1.087       .  S
C497        C498   1.208       .  T
C499        C500   1.204       .  T
C501        C502   1.206       .  T
C503        C504   1.202       .  T
C505        C896   1.475       .  S
C505        C506   1.348   1_655  D
C505       H1043   1.087       .  S
C506        H508   1.086       .  S
H507       C1041   1.087       .  S
C509        C510   1.348       .  D
C509        H511   1.087       .  S
C510       H1048   1.087       .  S
H512       C1046   1.087   1_455  S
C513        C514   1.347   1_455  D
C513        H515   1.086       .  S
C514        C871   1.470       .  S
C514       H1052   1.087       .  S
H516       C1050   1.087       .  S
C517        C518   1.345       .  D
C517       H1055   1.087       .  S
C518        H520   1.087       .  S
H519       C1053   1.087       .  S
C521        H523   1.087       .  S
C522        H524   1.087       .  S
C525        C526   1.349       .  D
C525        H527   1.087       .  S
C526        H528   1.086       .  S
C533        C534   1.342       .  D
C533        H535   1.087       .  S
C534        H536   1.087       .  S
O537       Zr549   2.413       .  S
O537        C807   1.282       .  A
O538       Zr575   2.460       .  S
O538        C539   1.293       .  A
C539        O805   1.281       .  A
C539        C801   1.470       .  S
O540       Zr552   2.426       .  S
O541       Zr576   2.444       .  S
O541        C542   1.290       .  A
C542        C774   1.482       .  S
O543       Zr552   2.422       .  S
O543        C813   1.286       .  A
O544       Zr575   2.448       .  S
O544        C545   1.290       .  A
C545        O811   1.285   1_545  A
C545        C794   1.482       .  S
O546       Zr549   2.414       .  S
O547       Zr576   2.441       .  S
O547        C548   1.289       .  A
C548        C781   1.478       .  S
Zr549       O550   2.434       .  S
Zr549       O551   2.436       .  S
Zr549       O555   2.369       .  S
Zr549       O556   2.363       .  S
Zr549       O849   2.365       .  S
O550        H593   0.990       .  S
O551        H592   0.990       .  S
O551        H596   0.990       .  S
Zr552       O553   2.436       .  S
Zr552       O554   2.436       .  S
Zr552       O556   2.364       .  S
Zr552       O555   2.373       .  S
Zr552       O848   2.365       .  S
O553        H594   0.990       .  S
O553        H597   0.990       .  S
O554        H587   0.990       .  S
O555       Zr843   2.382       .  S
O556        H583   0.965       .  S
O557       Zr569   2.411       .  S
O557        C827   1.281   1_545  A
O558       Zr576   2.443       .  S
O558        C559   1.289       .  A
C559        O825   1.285       .  A
C559        C797   1.477       .  S
O560       Zr572   2.425       .  S
O561       Zr575   2.445       .  S
O561        C562   1.290       .  A
C562        C777   1.480       .  S
O563       Zr572   2.419       .  S
O563        C833   1.285   1_545  A
O564       Zr576   2.445       .  S
O564        C565   1.290       .  A
C565        O831   1.287       .  A
C565        C790   1.482       .  S
O566       Zr569   2.417       .  S
O567       Zr575   2.433       .  S
O567        C568   1.288       .  A
C568        C785   1.463       .  S
Zr569       O570   2.437       .  S
Zr569       O571   2.434       .  S
Zr569       O577   2.363       .  S
Zr569       O578   2.362       .  S
Zr569       O847   2.366   1_545  S
O570        H590   0.990       .  S
O570        H595   0.990       .  S
O571        H591   0.990       .  S
Zr572       O573   2.433       .  S
Zr572       O574   2.435       .  S
Zr572       O578   2.365       .  S
Zr572       O577   2.375       .  S
Zr572       O850   2.366   1_545  S
O573        H589   0.990       .  S
O574        H588   0.990       .  S
O574        H598   0.990       .  S
Zr575       O823   2.382   1_545  S
Zr575       O580   2.396       .  S
Zr575       O581   2.391       .  S
Zr576       O845   2.389       .  S
Zr576       O579   2.391       .  S
Zr576       O582   2.391       .  S
O577       Zr844   2.390   1_545  S
O577        H585   0.965       .  S
O579       Zr837   2.368       .  S
O580       Zr820   2.363   1_545  S
O580        H584   0.966       .  S
O581       Zr817   2.369   1_545  S
O581        H586   0.966       .  S
O582       Zr840   2.368       .  S
C599        C786   1.481       .  S
C599        C600   1.403       .  A
C599        C604   1.411       .  A
C600        C601   1.397       .  A
C600        H605   1.085       .  S
C601        C602   1.394       .  A
C601        C772   1.436       .  S
C602        C603   1.399       .  A
C602        H606   1.085   1_655  S
C603        C604   1.406       .  A
C604        H607   1.083       .  S
C608        C798   1.494       .  S
C608        C609   1.402   1_565  A
C608        C613   1.415       .  A
C609        C610   1.399       .  A
C609        H614   1.085       .  S
C610        C802   1.488       .  S
C610        C611   1.411       .  A
C611        C612   1.405       .  A
C611        H615   1.083       .  S
C612        C613   1.407   1_545  A
C612        C769   1.455       .  S
C613        H616   1.081       .  S
C617        C789   1.474       .  S
C617        C618   1.407       .  A
C617        C622   1.401       .  A
C618        C619   1.409       .  A
C618        H623   1.083       .  S
C619        C793   1.478       .  S
C619        C620   1.405       .  A
C620        C621   1.398       .  A
C620        H624   1.085       .  S
C621        C622   1.395       .  A
C621        C767   1.440       .  S
C622        H625   1.085       .  S
C626        C778   1.475       .  S
C626        C627   1.407       .  A
C626        C631   1.403       .  A
C627        C628   1.407       .  A
C627        H632   1.084       .  S
C628        C629   1.402       .  A
C629        C630   1.397       .  A
C629        H633   1.085       .  S
C630        C631   1.397       .  A
C630        C765   1.439       .  S
C631        H634   1.085       .  S
C635        C761   1.480       .  S
C635        C636   1.405       .  A
C635        C908   1.409       .  A
C636        C905   1.399       .  A
C636        H641   1.085       .  S
C637        C904   1.402   1_545  A
C637        C638   1.403       .  A
C637        C770   1.454       .  S
C638        C639   1.408       .  A
C638        H642   1.084       .  S
C639        C757   1.487       .  S
C639        C640   1.410       .  A
C640        C903   1.409   1_545  A
C640        H643   1.083       .  S
O644       Zr656   2.425       .  S
O644        C646   1.286       .  A
O645       Zr682   2.437   1_556  S
O645        C646   1.288       .  A
C646        C737   1.479       .  S
O647       Zr659   2.439       .  S
O647        C649   1.287       .  A
O648       Zr683   2.432       .  S
O648        C649   1.287       .  A
C649        C745   1.462       .  S
O650       Zr659   2.434       .  S
O650        C652   1.287       .  A
O651       Zr682   2.442       .  S
O651        C652   1.289       .  A
C652        C762   1.483       .  S
O653       Zr656   2.430       .  S
O653        C655   1.287       .  A
O654       Zr683   2.442   1_556  S
O654        C655   1.289       .  A
C655        C754   1.477       .  S
Zr656       O657   2.434       .  S
Zr656       O658   2.435       .  S
Zr656       O662   2.366   1_556  S
Zr656       O663   2.357   1_556  S
Zr656       O686   2.370       .  S
Zr656       O688   2.367       .  S
O657        H700   0.990       .  S
O658        H699   0.990       .  S
O658        H703   0.990       .  S
Zr659       O660   2.437       .  S
Zr659       O661   2.435       .  S
Zr659       O663   2.369       .  S
Zr659       O662   2.369       .  S
Zr659       O687   2.373       .  S
Zr659       O689   2.374       .  S
O660        H701   0.990       .  S
O660        H704   0.990       .  S
O661        H694   0.990       .  S
O662       Zr682   2.384       .  S
O663       Zr683   2.395       .  S
O663        H690   0.965   1_554  S
O664       Zr676   2.420       .  S
O664        C666   1.285       .  A
O665       Zr683   2.441   1_556  S
O665        C666   1.289       .  A
C666        C733   1.479       .  S
O667       Zr679   2.415       .  S
O667        C669   1.285       .  A
O668       Zr682   2.443       .  S
O668        C669   1.289       .  A
C669        C741   1.481       .  S
O670       Zr679   2.427       .  S
O670        C672   1.286       .  A
O671       Zr683   2.459       .  S
O671        C672   1.293       .  A
C672        C758   1.489       .  S
O673       Zr676   2.421       .  S
O673        C675   1.286       .  A
O674       Zr682   2.440   1_556  S
O674        C675   1.289       .  A
C675        C750   1.478       .  S
Zr676       O677   2.435       .  S
Zr676       O678   2.435       .  S
Zr676       O684   2.369   1_556  S
Zr676       O685   2.364   1_556  S
Zr676       O688   2.365       .  S
Zr676       O686   2.363       .  S
O677        H697   0.990       .  S
O677        H702   0.990       .  S
O678        H698   0.990       .  S
Zr679       O680   2.433       .  S
Zr679       O681   2.435       .  S
Zr679       O685   2.368       .  S
Zr679       O684   2.366       .  S
Zr679       O689   2.367       .  S
Zr679       O687   2.368       .  S
O680        H696   0.990       .  S
O681        H695   0.990       .  S
O681        H705   0.990       .  S
Zr682       O685   2.380       .  S
Zr682       O687   2.396       .  S
Zr682       O688   2.391   1_554  S
Zr683       O684   2.383       .  S
Zr683       O686   2.390   1_554  S
Zr683       O689   2.393       .  S
O684        H692   0.966       .  S
O687        H691   0.966       .  S
O688        H693   0.966       .  S
C706        C742   1.471       .  S
C706        C707   1.400       .  A
C706        C711   1.406       .  A
C707        C708   1.394       .  A
C707        H712   1.085       .  S
C708        C771   1.436       .  S
C709        C710   1.400       .  A
C709        H713   1.085       .  S
C710        C746   1.480       .  S
C711        H714   1.084       .  S
C715        C738   1.468       .  S
C715        C716   1.400       .  A
C715        C988   1.404       .  A
C716        C985   1.396       .  A
C716        H721   1.085       .  S
C717        C984   1.397   1_545  A
C717        C718   1.398       .  A
C717        C768   1.440       .  S
C718        C719   1.404       .  A
C718        H722   1.085       .  S
C719        C734   1.477       .  S
C719        C720   1.407       .  A
C720        C983   1.405   1_545  A
C720        H723   1.083       .  S
C724        C749   1.479       .  S
C724        C725   1.404       .  A
C724        C729   1.406       .  A
C725        C726   1.400       .  A
C725        H730   1.085       .  S
C726        C766   1.439       .  S
C727        C728   1.402       .  A
C727        H731   1.084       .  S
C728        C753   1.470       .  S
C729        H732   1.083       .  S
C733        C734   1.348       .  D
C733        H735   1.086       .  S
C734        H736   1.087       .  S
C737        C738   1.345       .  D
C737        H739   1.087       .  S
C738        H740   1.086       .  S
C741        C742   1.348       .  D
C741        H743   1.086       .  S
C742        H744   1.087       .  S
C745        C746   1.336       .  D
C745        H747   1.086       .  S
C746        H748   1.088       .  S
C749        C750   1.348       .  D
C749        H751   1.087       .  S
C750        H752   1.086       .  S
C753        C754   1.345       .  D
C753        H755   1.086       .  S
C754        H756   1.087       .  S
C757        C758   1.352       .  D
C757        H759   1.087       .  S
C758        H760   1.086       .  S
C761        C762   1.348       .  D
C761        H763   1.087       .  S
C762        H764   1.086       .  S
C765        C766   1.206       .  T
C767        C768   1.206       .  T
C769        C770   1.215       .  T
C771        C772   1.203       .  T
C773        C774   1.348       .  D
C774        H776   1.086       .  S
C777        C778   1.348       .  D
C777        H779   1.086       .  S
C781        C782   1.347       .  D
C781        H783   1.086       .  S
C785        C786   1.338       .  D
C786        H788   1.088       .  S
C789       C1058   1.349   1_545  D
C789        H791   1.087       .  S
C790       C1057   1.347       .  D
C790        H792   1.086       .  S
C793        C794   1.349       .  D
C793        H795   1.087   1_545  S
C794        H796   1.086       .  S
C797       C1066   1.347       .  D
C797       H1067   1.086       .  S
C798       C1065   1.340       .  D
C798       H1068   1.089       .  S
H799       C1065   1.083       .  S
H800       C1066   1.088       .  S
C801        C802   1.338       .  D
C801        H803   1.086       .  S
C802        H804   1.088       .  S
O805       Zr817   2.411   1_545  S
O806       Zr843   2.459       .  S
O806        C807   1.292       .  A
C807       C1069   1.469       .  S
O808       Zr820   2.424       .  S
O809       Zr844   2.451       .  S
O809        C810   1.291       .  A
C810       C1042   1.485       .  S
O811       Zr820   2.421       .  S
O812       Zr843   2.447       .  S
O812        C813   1.290       .  A
C813       C1062   1.483       .  S
O814       Zr817   2.413       .  S
O815       Zr844   2.433       .  S
O815        C816   1.288       .  A
C816       C1049   1.476       .  S
Zr817       O818   2.434       .  S
Zr817       O819   2.435       .  S
Zr817       O823   2.369       .  S
Zr817       O824   2.364       .  S
O818        H861   0.990       .  S
O819        H860   0.990       .  S
O819        H864   0.990       .  S
Zr820       O821   2.436       .  S
Zr820       O822   2.436       .  S
Zr820       O824   2.363       .  S
Zr820       O823   2.374       .  S
O821        H862   0.990       .  S
O821        H865   0.990       .  S
O822        H855   0.990       .  S
O824        H851   0.965       .  S
O825       Zr837   2.419       .  S
O826       Zr844   2.457       .  S
O826        C827   1.292       .  A
C827       C1065   1.469       .  S
O828       Zr840   2.425       .  S
O829       Zr843   2.442       .  S
O829        C830   1.290       .  A
C830       C1045   1.480       .  S
O831       Zr840   2.427       .  S
O832       Zr844   2.451       .  S
O832        C833   1.291       .  A
C833       C1058   1.483       .  S
O834       Zr837   2.422       .  S
O835       Zr843   2.434       .  S
O835        C836   1.288       .  A
C836       C1053   1.475       .  S
Zr837       O838   2.436       .  S
Zr837       O839   2.435       .  S
Zr837       O845   2.362       .  S
Zr837       O846   2.365       .  S
O838        H858   0.990       .  S
O838        H863   0.990       .  S
O839        H859   0.990       .  S
Zr840       O841   2.433       .  S
Zr840       O842   2.435       .  S
Zr840       O846   2.366       .  S
Zr840       O845   2.367       .  S
O841        H857   0.990       .  S
O842        H856   0.990       .  S
O842        H866   0.990       .  S
Zr843       O848   2.396       .  S
Zr843       O849   2.390       .  S
Zr844       O847   2.388       .  S
Zr844       O850   2.393       .  S
O845        H853   0.965       .  S
O848        H852   0.966       .  S
O849        H854   0.966       .  S
C867       C1054   1.471       .  S
C867        C868   1.401       .  A
C867        C872   1.406       .  A
C868        C869   1.396       .  A
C868        H873   1.085       .  S
C869        C870   1.394       .  A
C869       C1040   1.434       .  S
C870        C871   1.400       .  A
C870        H874   1.085       .  S
C871        C872   1.405       .  A
C872        H875   1.084   1_655  S
C876       C1066   1.476       .  S
C876        C877   1.405       .  A
C876        C881   1.399       .  A
C877        C878   1.407       .  A
C877        H882   1.084       .  S
C878       C1070   1.496       .  S
C878        C879   1.416       .  A
C879        C880   1.402       .  A
C879        H883   1.080       .  S
C880        C881   1.396       .  A
C880       C1037   1.445       .  S
C881        H884   1.085       .  S
C885       C1057   1.475       .  S
C885        C886   1.408       .  A
C885        C890   1.400       .  A
C886        C887   1.409       .  A
C886        H891   1.083       .  S
C887       C1061   1.477       .  S
C887        C888   1.404       .  A
C888        C889   1.397       .  A
C888        H892   1.085       .  S
C889        C890   1.396       .  A
C889       C1035   1.438       .  S
C890        H893   1.085       .  S
C894       C1046   1.475       .  S
C894        C895   1.407       .  A
C894        C899   1.403       .  A
C895        C896   1.407       .  A
C895        H900   1.084       .  S
C896        C897   1.402       .  A
C897        C898   1.397       .  A
C897        H901   1.085       .  S
C898        C899   1.397       .  A
C898       C1033   1.439       .  S
C899        H902   1.085       .  S
C903       C1029   1.485       .  S
C903        C904   1.407       .  A
C904        H909   1.084       .  S
C905        C906   1.397       .  A
C905       C1038   1.444       .  S
C906        C907   1.404       .  A
C906        H910   1.085       .  S
C907       C1025   1.478       .  S
C907        C908   1.409       .  A
C908        H911   1.083       .  S
O912       Zr924   2.422       .  S
O912        C914   1.286       .  A
O913       Zr950   2.439   1_556  S
O913        C914   1.289       .  A
C914       C1005   1.478       .  S
O915       Zr927   2.427       .  S
O915        C917   1.287       .  A
O916       Zr951   2.438   1_554  S
O916        C917   1.289       .  A
C917       C1013   1.478       .  S
O918       Zr927   2.427       .  S
O918        C920   1.286       .  A
O919       Zr950   2.459       .  S
O919        C920   1.293       .  A
C920       C1030   1.488       .  S
O921       Zr924   2.432       .  S
O921        C923   1.287       .  A
O922       Zr951   2.441       .  S
O922        C923   1.289       .  A
C923       C1022   1.477       .  S
Zr924       O925   2.433       .  S
Zr924       O926   2.436       .  S
Zr924       O930   2.368       .  S
Zr924       O931   2.363       .  S
Zr924       O954   2.367       .  S
Zr924       O956   2.371       .  S
O925        H968   0.990       .  S
O926        H967   0.990       .  S
O926        H971   0.990       .  S
Zr927       O928   2.436       .  S
Zr927       O929   2.436       .  S
Zr927       O931   2.368   1_554  S
Zr927       O930   2.367   1_554  S
Zr927       O955   2.371       .  S
Zr927       O957   2.371       .  S
O928        H969   0.990       .  S
O928        H972   0.990       .  S
O929        H962   0.990       .  S
O930       Zr950   2.385   1_556  S
O931       Zr951   2.392       .  S
O931        H958   0.965       .  S
O932       Zr944   2.427       .  S
O932        C934   1.286       .  A
O933       Zr951   2.435       .  S
O933        C934   1.288       .  A
C934       C1001   1.478       .  S
O935       Zr947   2.418       .  S
O935        C937   1.285       .  A
O936       Zr950   2.443       .  S
O936        C937   1.289       .  A
C937       C1009   1.482       .  S
O938       Zr947   2.419       .  S
O938        C940   1.285       .  A
O939       Zr951   2.454   1_554  S
O939        C940   1.291       .  A
C940       C1026   1.485       .  S
O941       Zr944   2.412       .  S
O941        C943   1.284       .  A
O942       Zr950   2.456   1_556  S
O942        C943   1.292       .  A
C943       C1018   1.485       .  S
Zr944       O945   2.437       .  S
Zr944       O946   2.435       .  S
Zr944       O952   2.363       .  S
Zr944       O953   2.365   1_556  S
Zr944       O956   2.368       .  S
Zr944       O954   2.362       .  S
O945        H965   0.990       .  S
O945        H970   0.990       .  S
O946        H966   0.990       .  S
Zr947       O948   2.433       .  S
Zr947       O949   2.435       .  S
Zr947       O953   2.362       .  S
Zr947       O952   2.367   1_554  S
Zr947       O957   2.365       .  S
Zr947       O955   2.364       .  S
O948        H964   0.990       .  S
O949        H963   0.990       .  S
O949        H973   0.990       .  S
Zr950       O953   2.382       .  S
Zr950       O955   2.394       .  S
Zr950       O956   2.397   1_554  S
Zr951       O952   2.386       .  S
Zr951       O954   2.389       .  S
Zr951       O957   2.392   1_556  S
O952        H960   0.965       .  S
O955        H959   0.966       .  S
O956        H961   0.966       .  S
C974       C1010   1.473       .  S
C974        C975   1.402       .  A
C974        C979   1.407       .  A
C975        C976   1.396       .  A
C975        H980   1.085       .  S
C976       C1039   1.434       .  S
C977        C978   1.400       .  A
C977        H981   1.085       .  S
C978       C1014   1.470       .  S
C979        H982   1.084       .  S
C983       C1006   1.472       .  S
C983        C984   1.401       .  A
C984        H989   1.085       .  S
C985        C986   1.398       .  A
C985       C1036   1.438       .  S
C986        C987   1.403       .  A
C986        H990   1.085       .  S
C987       C1002   1.477       .  S
C987        C988   1.408       .  A
C988        H991   1.083       .  S
C992       C1017   1.477       .  S
C992        C993   1.404       .  A
C992        C997   1.408       .  A
C993        C994   1.397       .  A
C993        H998   1.085       .  S
C994       C1034   1.439       .  S
C995        C996   1.402       .  A
C995        H999   1.084       .  S
C996       C1021   1.472       .  S
C997       H1000   1.084       .  S
C1001      C1002   1.347       .  D
C1001      H1003   1.086       .  S
C1002      H1004   1.087       .  S
C1005      C1006   1.346       .  D
C1005      H1007   1.087       .  S
C1006      H1008   1.087       .  S
C1009      C1010   1.348       .  D
C1009      H1011   1.086       .  S
C1010      H1012   1.087       .  S
C1013      C1014   1.345       .  D
C1013      H1015   1.087       .  S
C1014      H1016   1.087       .  S
C1017      C1018   1.351       .  D
C1017      H1019   1.087       .  S
C1018      H1020   1.086       .  S
C1021      C1022   1.345       .  D
C1021      H1023   1.087       .  S
C1022      H1024   1.087       .  S
C1025      C1026   1.350       .  D
C1025      H1027   1.087       .  S
C1026      H1028   1.086       .  S
C1029      C1030   1.352       .  D
C1029      H1031   1.087       .  S
C1030      H1032   1.086       .  S
C1033      C1034   1.205       .  T
C1035      C1036   1.205       .  T
C1037      C1038   1.209       .  T
C1039      C1040   1.203       .  T
C1041      C1042   1.350       .  D
C1042      H1044   1.086       .  S
C1045      C1046   1.347       .  D
C1045      H1047   1.087       .  S
C1049      C1050   1.345       .  D
C1049      H1051   1.087       .  S
C1053      C1054   1.345       .  D
C1054      H1056   1.087   1_655  S
C1057      H1059   1.087       .  S
C1058      H1060   1.086       .  S
C1061      C1062   1.349       .  D
C1061      H1063   1.087       .  S
C1062      H1064   1.086       .  S
C1069      C1070   1.342       .  D
C1069      H1071   1.082       .  S
C1070      H1072   1.088       .  S
