geometry optimzed in LAMMPS
_audit_creation_date              2020-11-30 
_audit_creation_method            'lammps2cif' 
_symmetry_space_group_name_H-M    'P1' 
_symmetry_Int_Tables_number       1 
_symmetry_cell_setting            triclinic 
loop_ 
_symmetry_equiv_pos_as_xyz 
  x,y,z 
_cell_length_a                    32.76791189 
_cell_length_b                    30.90855265282743 
_cell_length_c                    26.930510083550658 
_cell_angle_alpha                 94.59966107848587 
_cell_angle_beta                  84.4809976354061 
_cell_angle_gamma                 87.17237254365978 
loop_ 
_atom_site_label 
_atom_site_type_symbol 
_atom_site_fract_x 
_atom_site_fract_y 
_atom_site_fract_z 
_atom_site_charge 
O1          O  0.03939209  0.49880162  0.06735312    -0.73900
O2          O  0.03916985  0.50397384  0.42259811    -0.73900
O3          O  0.03532235  0.56349271  0.50436454    -0.74000
O4          O  0.04335601  0.43901140  0.98592713    -0.74000
O5          O  0.97501785  0.43861298  0.99151230    -0.73900
O6          O  0.96711503  0.56287805  0.51348083    -0.73900
O7          O  0.97094631  0.50466377  0.43048406    -0.73900
O8          O  0.97130656  0.49722651  0.07492227    -0.74000
Ni9        Ni  0.04168684  0.50132062  0.49473783     1.25400
Ni10       Ni  0.96872401  0.50076263  0.00288851     1.25400
C11         C  0.00533943  0.49759635  0.09531047     0.88300
C12         C  0.00504108  0.50524964  0.40244921     0.88200
C13         C  0.99993639  0.58375080  0.51282044     0.88300
C14         C  0.01044920  0.41840517  0.98506428     0.88400
O15         O  0.97216163  0.44089601  0.25210705    -0.73900
O16         O  0.96995535  0.56682835  0.25397389    -0.73900
O17         O  0.97111658  0.50010456  0.18013769    -0.74000
O18         O  0.97093201  0.50721695  0.32595141    -0.74000
O19         O  0.03917541  0.50508260  0.31786751    -0.73900
O20         O  0.03937674  0.49678565  0.17201485    -0.73900
O21         O  0.03817473  0.56387302  0.24508551    -0.73900
O22         O  0.04041611  0.43818529  0.24520314    -0.74000
Ni23       Ni  0.96869885  0.50390536  0.25331772     1.25400
Ni24       Ni  0.04161748  0.50091529  0.24471529     1.25400
C25         C  0.00664795  0.41872640  0.24993171     0.88300
C26         C  0.00372266  0.58627865  0.24866041     0.88200
C27         C  0.00528061  0.49782668  0.15179962     0.88300
C28         C  0.00503650  0.50626303  0.34612963     0.88400
O29         O  0.10509045  0.96101847  0.48375770    -0.80300
O30         O  0.90875469  0.97776594  0.47716648    -0.65000
O31         O  0.02629292  0.99419979  0.46624385    -1.11600
C32         C  0.99322914  0.05035913  0.11788366     1.06500
O33         O  0.88799547  0.03959230  0.02274293    -0.78200
O34         O  0.95246212  0.09080598  0.00801837    -0.65800
Ni35       Ni  0.06287425  0.94430530  0.44335561     1.34900
C36         C  0.98954851  0.10048392  0.99806657     0.85300
O37         O  0.96698080  0.96066188  0.40300252    -0.78800
O38         O  0.02411952  0.92428315  0.40040346    -0.89100
C39         C  0.88049954  0.00554374  0.49631531     0.84800
O40         O  0.04028641  0.91152857  0.49527089    -0.67300
O41         O  0.97109654  0.07918724  0.10151701    -0.86500
C42         C  0.00295338  0.90270686  0.50439976     0.85700
C43         C  0.00306335  0.95378545  0.38353058     1.07200
H44         H  0.96161123  0.98426850  0.05492326     0.39100
O45         O  0.96865694  0.00852157  0.03620500    -1.09200
O46         O  0.02027340  0.07694498  0.00882553    -0.65900
Ni47       Ni  0.02808212  0.01891151  0.03139103     1.26300
O48         O  0.97300442  0.92622716  0.49184647    -0.66100
O49         O  0.02905837  0.04445367  0.09768746    -0.78400
C50         C  0.11381816  0.99648823  0.00638646     0.85100
O51         O  0.08638392  0.02623715  0.02262237    -0.65600
Ni52       Ni  0.93153061  0.05775575  0.06061135     1.27400
Ni53       Ni  0.96698556  0.98475632  0.47015116     1.26100
H54         H  0.03400598  0.01802064  0.44736373     0.39600
O55         O  0.10263448  0.98429391  0.17746484    -0.80300
O56         O  0.90636702  0.98794993  0.24711283    -0.65000
O57         O  0.01922663  0.01555831  0.21175482    -1.11600
C58         C  0.02294605  0.99167319  0.36602788     1.06500
O59         O  0.89641984  0.02353812  0.32285789    -0.78200
O60         O  0.96089522  0.07816342  0.31192279    -0.65800
Ni61       Ni  0.04783241  0.98012905  0.15616329     1.34900
C62         C  0.99614456  0.09228760  0.29960473     0.85300
O63         O  0.94423198  0.01634333  0.16680948    -0.78800
O64         O  0.99600091  0.97645257  0.13227939    -0.89100
C65         C  0.88271259  0.00349631  0.28515969     0.84800
O66         O  0.03965567  0.92852162  0.19048440    -0.67300
O67         O  0.00275147  0.02783516  0.36930950    -0.86500
C68         C  0.00484463  0.91352305  0.20297016     0.85700
C69         C  0.97474588  0.01194513  0.13539797     1.07200
H70         H  0.97657661  0.95965432  0.29503085     0.39100
O71         O  0.97905576  0.98995179  0.28953859    -1.09200
O72         O  0.02869131  0.06654145  0.29385331    -0.65900
Ni73       Ni  0.03666936  0.00335831  0.27304370     1.26300
O74         O  0.97139875  0.93788068  0.20762253    -0.66100
O75         O  0.05338792  0.98652150  0.33444120    -0.78400
C76         C  0.11603512  0.00178346  0.21683677     0.85100
O77         O  0.09215348  0.01537463  0.25529119    -0.65600
Ni78       Ni  0.95104395  0.02606561  0.34489444     1.27400
Ni79       Ni  0.96160679  0.00101214  0.22830303     1.26100
H80         H  0.02127555  0.04599390  0.20671929     0.39600
O81         O  0.49596561  0.96040966  0.42318490    -0.73900
O82         O  0.50181487  0.96036063  0.06772822    -0.73900
O83         O  0.43993040  0.96449403  0.00631934    -0.74000
O84         O  0.55757135  0.95629557  0.98453369    -0.74000
O85         O  0.55765931  0.02856338  0.49071337    -0.73900
O86         O  0.44018397  0.03676343  0.51203612    -0.73900
O87         O  0.50181275  0.03253139  0.07408850    -0.73900
O88         O  0.49623846  0.03258352  0.42950344    -0.74000
Ni89       Ni  0.49875595  0.95787320  0.99526409     1.25400
Ni90       Ni  0.49898445  0.03510639  0.50191232     1.25400
C91         C  0.49554556  0.99647346  0.40223684     0.88300
C92         C  0.50274044  0.99644618  0.09501844     0.88200
C93         C  0.42059861  0.00193017  0.01239590     0.88300
C94         C  0.57703250  0.99120866  0.48344225     0.88400
O95         O  0.50503691  0.96029728  0.17215602    -0.73900
O96         O  0.49713033  0.96030964  0.31814898    -0.73900
O97         O  0.44238975  0.96160258  0.24636627    -0.74000
O98         O  0.56012304  0.95914446  0.24437249    -0.74000
O99         O  0.55726610  0.03144142  0.25128979    -0.73900
O100        O  0.43988787  0.03390672  0.25363082    -0.73900
O101        O  0.49467422  0.03259152  0.32514833    -0.73900
O102        O  0.50236212  0.03256382  0.17916471    -0.74000
Ni103      Ni  0.50130231  0.95781276  0.24494570     1.25400
Ni104      Ni  0.49849185  0.03510090  0.25247002     1.25400
C105        C  0.50378613  0.99644037  0.15140507     0.88300
C106        C  0.49542326  0.99644507  0.34587914     0.88200
C107        C  0.42171050  0.99821053  0.24927503     0.88300
C108        C  0.57802737  0.99501047  0.24959299     0.88400
C109        C  0.21868181  0.02519752  0.26617485    -0.27700
C110        C  0.24683413  0.00627554  0.22708658     0.06000
C111        C  0.23193334  0.98805755  0.18326462     0.25600
C112        C  0.18955054  0.98788494  0.17928701    -0.12100
C113        C  0.16110994  0.00551602  0.21917332    -0.26100
C114        C  0.17641246  0.02486227  0.26254715     0.36400
C115        C  0.29149023  0.00434112  0.23318932     0.06000
F116        F  0.25843429  0.97041245  0.14430992    -0.19900
H117        H  0.17904325  0.97314532  0.14529854     0.15800
F118        F  0.15071575  0.04279573  0.30221388    -0.23600
H119        H  0.22946977  0.03928297  0.30032639     0.17600
C120        C  0.31161605  0.04220932  0.24583845     0.25600
C121        C  0.35363740  0.03982593  0.25183341    -0.12100
C122        C  0.37650625  0.99962404  0.24591626    -0.26200
C123        C  0.35596257  0.96160114  0.23427341     0.36500
C124        C  0.31402147  0.96413403  0.22777468    -0.27800
F125        F  0.29086132  0.08168065  0.25116539    -0.19900
H126        H  0.36835072  0.06970081  0.26068931     0.15800
F127        F  0.37631144  0.92192285  0.22843703    -0.23600
H128        H  0.29894837  0.93448968  0.21884350     0.17600
C129        C  0.76649095  0.01225596  0.32099423    -0.27700
C130        C  0.75208258  0.99218704  0.27781284     0.06000
C131        C  0.78081233  0.97450503  0.23844960     0.25600
C132        C  0.82289076  0.97766584  0.24179672    -0.12100
C133        C  0.83762445  0.99855498  0.28442186    -0.26100
C134        C  0.80876593  0.01524577  0.32456520     0.36400
C135        C  0.70727727  0.99222800  0.27237046     0.06000
F136        F  0.76817546  0.95588221  0.19560959    -0.19900
H137        H  0.84396497  0.96438346  0.21019180     0.15800
F138        F  0.82113123  0.03504075  0.36694092    -0.23600
H139        H  0.74487946  0.02594984  0.35188699     0.17600
C140        C  0.68831411  0.95364194  0.25925867     0.25600
C141        C  0.64660809  0.95479724  0.25123130    -0.13700
C142        C  0.62285284  0.99441903  0.25591274    -0.26200
C143        C  0.64195500  0.03295504  0.26972719     0.36500
C144        C  0.68353989  0.03166335  0.27799935    -0.27800
F145        F  0.70997482  0.91471116  0.25498109    -0.19900
H146        H  0.63287735  0.92450361  0.24151131     0.15800
F147        F  0.62054677  0.07205035  0.27577785    -0.23600
H148        H  0.69750017  0.06178709  0.28795726     0.17600
C149        C  0.21563899  0.04193860  0.03857108    -0.27700
C150        C  0.24340986  0.00679497  0.01996169     0.06000
C151        C  0.22806087  0.96929516  0.49740840     0.25600
C152        C  0.18619759  0.96658484  0.49445595    -0.12100
C153        C  0.15801202  0.00136153  0.01294475    -0.26100
C154        C  0.17322917  0.03942745  0.03496423     0.36400
C155        C  0.28835431  0.00845424  0.02333836     0.06000
F156        F  0.25369740  0.93540738  0.47664848    -0.19900
H157        H  0.17607259  0.93688208  0.47666432     0.15800
F158        F  0.14747246  0.07417424  0.05251406    -0.23600
H159        H  0.22675681  0.07120000  0.05617279     0.17600
C160        C  0.31032151  0.04352905  0.00703463     0.25600
C161        C  0.35327266  0.04183574  0.00517901    -0.12100
C162        C  0.37509027  0.00497468  0.01881172    -0.26200
C163        C  0.35295947  0.97058539  0.03662756     0.36500
C164        C  0.31015997  0.97261448  0.03922682    -0.27800
F165        F  0.29059736  0.07826861  0.99019808    -0.19900
H166        H  0.36958115  0.06868947  0.99111934     0.15800
F167        F  0.37258287  0.93479483  0.05131747    -0.23600
H168        H  0.29398119  0.94543793  0.05263332     0.17600
C169        C  0.76463378  0.02389069  0.00423308    -0.27700
C170        C  0.75333413  0.98919762  0.47283470     0.06000
C171        C  0.78399291  0.95877885  0.44939575     0.25600
C172        C  0.82544423  0.96387274  0.45690970    -0.12100
C173        C  0.83677290  0.99916682  0.48815309    -0.26100
C174        C  0.80547457  0.02887894  0.01213546     0.36400
C175        C  0.70913880  0.98593701  0.46645730     0.06000
F176        F  0.77400948  0.92485363  0.41857610    -0.19900
H177        H  0.84861767  0.94039629  0.43809254     0.15800
F178        F  0.81387278  0.06293217  0.04385858    -0.23600
H179        H  0.74143949  0.04720917  0.02341452     0.17600
C180        C  0.68816912  0.94929665  0.97965563     0.25600
C181        C  0.64517742  0.95054246  0.98314072    -0.12100
C182        C  0.62245132  0.98849867  0.47428307    -0.26200
C183        C  0.64369232  0.02428350  0.45851831     0.36500
C184        C  0.68652007  0.02277610  0.45445562    -0.27800
F185        F  0.70893847  0.91358542  0.99279294    -0.19900
H186        H  0.62962543  0.92250571  0.99519720     0.15800
F187        F  0.62319408  0.06119381  0.44810486    -0.23600
H188        H  0.70213775  0.05127819  0.44397277     0.17600
C189        C  0.96659992  0.70667419  0.24712680    -0.27700
C190        C  0.00309195  0.72669267  0.23238297     0.06000
C191        C  0.03984658  0.70002499  0.22492950     0.25600
C192        C  0.03977387  0.65518173  0.23133578    -0.12100
C193        C  0.00319409  0.63497009  0.24508342    -0.26100
C194        C  0.96648633  0.66171396  0.25323208     0.36400
C195        C  0.00276336  0.77493715  0.22515438     0.06000
F196        F  0.07596244  0.71684880  0.20965428    -0.19900
H197        H  0.06861592  0.63600602  0.22441523     0.15800
F198        F  0.93023437  0.64462568  0.26728833    -0.23600
H199        H  0.93786472  0.72598382  0.25446962     0.17600
C200        C  0.97188462  0.79594299  0.20081646     0.25600
C201        C  0.97209263  0.84089301  0.19461488    -0.12100
C202        C  0.00350426  0.86610355  0.21132617    -0.26200
C203        C  0.03445031  0.84522150  0.23522550     0.36500
C204        C  0.03372166  0.80064658  0.24253149    -0.27800
F205        F  0.94213601  0.77283984  0.18138402    -0.19900
H206        H  0.94820581  0.85578670  0.17539226     0.15800
F207        F  0.06507808  0.86822871  0.25274496    -0.23600
H208        H  0.05743360  0.78632754  0.26243911     0.17600
C209        C  0.96820672  0.21474245  0.29888793    -0.27700
C210        C  0.00432871  0.23096255  0.27649511     0.06000
C211        C  0.03840825  0.20096683  0.26311037     0.25600
C212        C  0.03586053  0.15647239  0.27122584    -0.12100
C213        C  0.99930401  0.14020905  0.29263774    -0.26100
C214        C  0.96551987  0.17041134  0.30660294     0.36400
C215        C  0.00580588  0.27880446  0.26752449     0.06000
F216        F  0.07392574  0.21420626  0.24056497    -0.19900
H217        H  0.06249660  0.13452785  0.25981854     0.15800
F218        F  0.92954824  0.15738432  0.32815501    -0.23600
H219        H  0.94169791  0.23663755  0.31105980     0.17600
C220        C  0.97248782  0.30158187  0.24955359     0.25600
C221        C  0.97316217  0.34647738  0.24362707    -0.12100
C222        C  0.00727818  0.37027979  0.25433345    -0.26200
C223        C  0.04098073  0.34746045  0.27131843     0.36500
C224        C  0.04003555  0.30265173  0.27806991    -0.27800
F225        F  0.93929991  0.28033488  0.23665177    -0.19900
H226        H  0.94681128  0.36265448  0.23019965     0.15800
F227        F  0.07442891  0.36871769  0.28327921    -0.23600
H228        H  0.06591869  0.28683530  0.29283475     0.17600
C229        C  0.02101046  0.79591241  0.06001283    -0.27700
C230        C  0.98992767  0.77192879  0.54060796     0.06000
C231        C  0.95862459  0.79404739  0.51861680     0.25600
C232        C  0.96086001  0.83823753  0.51170525    -0.12100
C233        C  0.99461909  0.86093910  0.52568266    -0.26100
C234        C  0.02364121  0.83993601  0.05231639     0.36400
C235        C  0.99303651  0.72363255  0.53762880     0.06000
F236        F  0.92801988  0.77222018  0.49930488    -0.19900
H237        H  0.93802326  0.85360831  0.49130276     0.15800
F238        F  0.05584488  0.86120524  0.06837649    -0.23600
H239        H  0.04464264  0.77992188  0.07867764     0.17600
C240        C  0.03006216  0.70059024  0.51827545     0.25600
C241        C  0.03205596  0.65527349  0.51097813    -0.12100
C242        C  0.99717585  0.63180754  0.52207481    -0.26200
C243        C  0.96021959  0.65479262  0.54203024     0.36500
C244        C  0.95840097  0.70018131  0.55003824    -0.27800
F245        F  0.06393712  0.72189554  0.50405574    -0.19900
H246        H  0.06085170  0.63860749  0.49538526     0.15800
F247        F  0.92577465  0.63359896  0.55388106    -0.23600
H248        H  0.92968456  0.71710405  0.56545404     0.17600
C249        C  0.97037543  0.21467088  0.96049027    -0.27700
C250        C  0.00945098  0.23120370  0.96212298     0.06000
C251        C  0.04296775  0.20227287  0.46763882     0.25600
C252        C  0.03676649  0.15871991  0.47528878    -0.12100
C253        C  0.99708975  0.14302737  0.97766634    -0.26100
C254        C  0.96417143  0.17114452  0.96771288     0.36400
C255        C  0.01378541  0.27903968  0.96346522     0.06000
F256        F  0.08155670  0.21636939  0.46744861    -0.19900
H257        H  0.06286853  0.13793217  0.48210533     0.15800
F258        F  0.92536928  0.15759210  0.96802203    -0.23600
H259        H  0.94388210  0.23605232  0.95670566     0.17600
C260        C  0.99252955  0.30480728  0.93232957     0.25600
C261        C  0.99177327  0.35018614  0.93940299    -0.12100
C262        C  0.01322100  0.37067292  0.97641627    -0.26200
C263        C  0.03624628  0.34522786  0.00576381     0.36500
C264        C  0.03602479  0.29986110  0.99977905    -0.27800
F265        F  0.97223050  0.28618613  0.89530350    -0.19900
H266        H  0.97446453  0.36943074  0.91585495     0.15800
F267        F  0.05701503  0.36427517  0.54211972    -0.23600
H268        H  0.05190607  0.28111818  0.52507541     0.17600
O269        O  0.03939261  0.49880238  0.56735304    -0.73900
O270        O  0.03916978  0.50397378  0.92259830    -0.73900
O271        O  0.03532240  0.56349225  0.00436512    -0.74000
O272        O  0.04335660  0.43901182  0.48592743    -0.74000
O273        O  0.97501845  0.43861302  0.49151272    -0.73900
O274        O  0.96711506  0.56287801  0.01348100    -0.73900
O275        O  0.97094623  0.50466397  0.93048398    -0.73900
O276        O  0.97130712  0.49722677  0.57492238    -0.74000
Ni277      Ni  0.04168656  0.50132018  0.99473798     1.25400
Ni278      Ni  0.96872431  0.50076265  0.50288863     1.25400
C279        C  0.00534002  0.49759686  0.59531049     0.88300
C280        C  0.00504108  0.50524979  0.90244927     0.88200
C281        C  0.99993654  0.58375055  0.01282101     0.88300
C282        C  0.01044988  0.41840541  0.48506487     0.88400
O283        O  0.97216241  0.44089621  0.75210696    -0.73900
O284        O  0.96995547  0.56682853  0.75397394    -0.73900
O285        O  0.97111719  0.50010478  0.68013764    -0.74000
O286        O  0.97093225  0.50721709  0.82595135    -0.74000
O287        O  0.03917564  0.50508310  0.81786773    -0.73900
O288        O  0.03937735  0.49678623  0.67201497    -0.73900
O289        O  0.03817486  0.56387355  0.74508580    -0.73900
O290        O  0.04041689  0.43818581  0.74520335    -0.74000
Ni291      Ni  0.96869929  0.50390553  0.75331766     1.25400
Ni292      Ni  0.04161792  0.50091583  0.74471550     1.25400
C293        C  0.00664880  0.41872678  0.74993186     0.88300
C294        C  0.00372269  0.58627900  0.74866065     0.88200
C295        C  0.00528124  0.49782712  0.65179965     0.88300
C296        C  0.00503667  0.50626331  0.84612971     0.88400
O297        O  0.10508921  0.96101965  0.98375884    -0.80300
O298        O  0.90875380  0.97776537  0.97716697    -0.65000
O299        O  0.02629178  0.99420039  0.96624439    -1.11600
C300        C  0.99323027  0.05035857  0.61788327     1.06500
O301        O  0.88799700  0.03959335  0.52274181    -0.78200
O302        O  0.95246427  0.09080604  0.50801765    -0.65800
Ni303      Ni  0.06287344  0.94430614  0.94335635     1.34900
C304        C  0.98955080  0.10048358  0.49806619     0.85300
O305        O  0.96698010  0.96066219  0.90300290    -0.78800
O306        O  0.02411897  0.92428368  0.90040399    -0.89100
C307        C  0.88049836  0.00554268  0.99631618     0.84800
O308        O  0.04028588  0.91152912  0.99527147    -0.67300
O309        O  0.97109816  0.07918698  0.60151644    -0.86500
C310        C  0.00295297  0.90270700  0.00440004     0.85700
C311        C  0.00306271  0.95378587  0.88353103     1.07200
H312        H  0.96161200  0.98426864  0.55492273     0.39100
O313        O  0.96865801  0.00852152  0.53620440    -1.09200
O314        O  0.02027539  0.07694429  0.50882536    -0.65900
Ni315      Ni  0.02808329  0.01891065  0.53139068     1.26300
O316        O  0.97300388  0.92622713  0.99184677    -0.66100
O317        O  0.02905952  0.04445252  0.59768723    -0.78400
C318        C  0.11381931  0.99648648  0.50638672     0.85100
O319        O  0.08638519  0.02623551  0.52262261    -0.65600
Ni320      Ni  0.93153214  0.05775611  0.56061055     1.27400
Ni321      Ni  0.96698458  0.98475638  0.97015170     1.26100
H322        H  0.03400465  0.01802124  0.94736421     0.39600
O323        O  0.10263446  0.98429365  0.67746564    -0.80300
O324        O  0.90636685  0.98795074  0.74711242    -0.65000
O325        O  0.01922671  0.01555851  0.71175500    -1.11600
C326        C  0.02294538  0.99167362  0.86602827     1.06500
O327        O  0.89641955  0.02353885  0.82285752    -0.78200
O328        O  0.96089508  0.07816400  0.81192276    -0.65800
Ni329      Ni  0.04783252  0.98012878  0.65616383     1.34900
C330        C  0.99614450  0.09228807  0.79960487     0.85300
O331        O  0.94423240  0.01634363  0.66680905    -0.78800
O332        O  0.99600114  0.97645223  0.63227963    -0.89100
C333        C  0.88271238  0.00349708  0.78515926     0.84800
O334        O  0.03965548  0.92852172  0.69048548    -0.67300
O335        O  0.00275086  0.02783562  0.86930979    -0.86500
C336        C  0.00484433  0.91352334  0.70297106     0.85700
C337        C  0.97474641  0.01194493  0.63539770     1.07200
H338        H  0.97657616  0.95965495  0.79503106     0.39100
O339        O  0.97905542  0.98995235  0.78953871    -1.09200
O340        O  0.02869118  0.06654181  0.79385356    -0.65900
Ni341      Ni  0.03666913  0.00335863  0.77304410     1.26300
O342        O  0.97139853  0.93788107  0.70762289    -0.66100
O343        O  0.05338737  0.98652192  0.83444178    -0.78400
C344        C  0.11603506  0.00178331  0.71683753     0.85100
O345        O  0.09215337  0.01537471  0.75529184    -0.65600
Ni346      Ni  0.95104351  0.02606624  0.84489440     1.27400
Ni347      Ni  0.96160677  0.00101262  0.72830292     1.26100
H348        H  0.02127582  0.04599393  0.70671934     0.39600
O349        O  0.49596443  0.96040940  0.92318489    -0.73900
O350        O  0.50181642  0.96036100  0.56772815    -0.73900
O351        O  0.43993181  0.96449364  0.50631961    -0.74000
O352        O  0.55757275  0.95629668  0.48453345    -0.74000
O353        O  0.55765873  0.02856223  0.99071339    -0.73900
O354        O  0.44018334  0.03676376  0.01203592    -0.73900
O355        O  0.50181344  0.03253181  0.57408857    -0.73900
O356        O  0.49623798  0.03258322  0.92950344    -0.74000
Ni357      Ni  0.49875738  0.95787354  0.49526406     1.25400
Ni358      Ni  0.49898387  0.03510600  0.00191227     1.25400
C359        C  0.49554479  0.99647321  0.90223685     0.88300
C360        C  0.50274149  0.99644658  0.59501845     0.88200
C361        C  0.42059965  0.00192959  0.51239637     0.88300
C362        C  0.57703151  0.99120728  0.98344241     0.88400
O363        O  0.50503750  0.96029758  0.67215599    -0.73900
O364        O  0.49712994  0.96030955  0.81814891    -0.73900
O365        O  0.44238990  0.96160259  0.74636572    -0.74000
O366        O  0.56012304  0.95914463  0.74437307    -0.74000
O367        O  0.55726601  0.03144161  0.75129073    -0.73900
O368        O  0.43988790  0.03390674  0.75363042    -0.73900
O369        O  0.49467369  0.03259143  0.82514850    -0.73900
O370        O  0.50236264  0.03256411  0.67916490    -0.74000
Ni371      Ni  0.50130239  0.95781285  0.74494566     1.25400
Ni372      Ni  0.49849183  0.03510101  0.75247024     1.25400
C373        C  0.50378687  0.99644071  0.65140514     0.88300
C374        C  0.49542269  0.99644492  0.84587918     0.88200
C375        C  0.42171060  0.99821051  0.74927454     0.88300
C376        C  0.57802725  0.99501066  0.74959408     0.88400
C377        C  0.21868181  0.02519813  0.76617501    -0.27700
C378        C  0.24683406  0.00627493  0.72708732     0.06000
C379        C  0.23193320  0.98805577  0.68326600     0.25600
C380        C  0.18955041  0.98788334  0.67928836    -0.12100
C381        C  0.16110987  0.00551570  0.71917408    -0.26100
C382        C  0.17641245  0.02486300  0.76254732     0.36400
C383        C  0.29149017  0.00434064  0.73318992     0.06000
F384        F  0.25843405  0.97040933  0.64431191    -0.19900
H385        H  0.17904309  0.97314281  0.64530036     0.15800
F386        F  0.15071576  0.04279770  0.80221342    -0.23600
H387        H  0.22946984  0.03928448  0.80032608     0.17600
C388        C  0.31161615  0.04220907  0.74583764     0.25600
C389        C  0.35363756  0.03982585  0.75183217    -0.12100
C390        C  0.37650634  0.99962393  0.74591592    -0.26200
C391        C  0.35596254  0.96160083  0.73427443     0.36500
C392        C  0.31402136  0.96413354  0.72777619    -0.27800
F393        F  0.29086150  0.08168042  0.75116356    -0.19900
H394        H  0.36835098  0.06970088  0.76068701     0.15800
F395        F  0.37631135  0.92192251  0.72843901    -0.23600
H396        H  0.29894816  0.93448904  0.71884608     0.17600
C397        C  0.76649108  0.01225337  0.82099609    -0.27700
C398        C  0.75208239  0.99218724  0.77781342     0.06000
C399        C  0.78081183  0.97450836  0.73844823     0.25600
C400        C  0.82289028  0.97766942  0.74179487    -0.12100
C401        C  0.83762427  0.99855571  0.78442144    -0.26100
C402        C  0.80876609  0.01524345  0.82456654     0.36400
C403        C  0.70727699  0.99222800  0.77237188     0.06000
F404        F  0.76817456  0.95588841  0.69560700    -0.19900
H405        H  0.84396425  0.96438953  0.71018853     0.15800
F406        F  0.82113173  0.03503548  0.86694366    -0.23600
H407        H  0.74487983  0.02594483  0.85189030     0.17600
C408        C  0.68831444  0.95364232  0.75925686     0.25600
C409        C  0.64660839  0.95479769  0.75122968    -0.13700
C410        C  0.62285257  0.99441921  0.75591447    -0.26200
C411        C  0.64195401  0.03295476  0.76973260     0.36500
C412        C  0.68353893  0.03166297  0.77800456    -0.27800
F413        F  0.70997582  0.91471180  0.75497573    -0.19900
H414        H  0.63287815  0.92450436  0.74150691     0.15800
F415        F  0.62054504  0.07204965  0.77578713    -0.23600
H416        H  0.69749872  0.06178641  0.78796519     0.17600
C417        C  0.21563995  0.04193682  0.53857193    -0.27700
C418        C  0.24341072  0.00679234  0.51996515     0.06000
C419        C  0.22806020  0.96929882  0.99740243     0.25600
C420        C  0.18619690  0.96658837  0.99445059    -0.12100
C421        C  0.15801297  0.00135917  0.51294674    -0.26100
C422        C  0.17323023  0.03942582  0.53496427     0.36400
C423        C  0.28835528  0.00845218  0.52334115     0.06000
F424        F  0.25369692  0.93541208  0.97664002    -0.19900
H425        H  0.17607206  0.93688633  0.97665706     0.15800
F426        F  0.14747378  0.07417368  0.55251089    -0.23600
H427        H  0.22675779  0.07119897  0.55617186     0.17600
C428        C  0.31032201  0.04352686  0.50703601     0.25600
C429        C  0.35327318  0.04183405  0.50517966    -0.12100
C430        C  0.37509133  0.00497359  0.51881290    -0.26200
C431        C  0.35296110  0.97058448  0.53663016     0.36500
C432        C  0.31016155  0.97261313  0.53923032    -0.27800
F433        F  0.29059741  0.07826577  0.49019871    -0.19900
H434        H  0.36958126  0.06868766  0.49111895     0.15800
F435        F  0.37258511  0.93479451  0.55132062    -0.23600
H436        H  0.29398326  0.94543673  0.55263803     0.17600
C437        C  0.76463506  0.02389269  0.50423277    -0.27700
C438        C  0.75333307  0.98919501  0.97283575     0.06000
C439        C  0.78399200  0.95877596  0.94939774     0.25600
C440        C  0.82544328  0.96387034  0.95691162    -0.12100
C441        C  0.83677175  0.99916515  0.98815411    -0.26100
C442        C  0.80547592  0.02888049  0.51213515     0.36400
C443        C  0.70913782  0.98593429  0.96645794     0.06000
F444        F  0.77400877  0.92485000  0.91857903    -0.19900
H445        H  0.84861686  0.94039371  0.93809512     0.15800
F446        F  0.81387437  0.06293306  0.54385906    -0.23600
H447        H  0.74144090  0.04721096  0.52341489     0.17600
C448        C  0.68817047  0.94929877  0.47965365     0.25600
C449        C  0.64517878  0.95054422  0.48313892    -0.12100
C450        C  0.62245032  0.98849668  0.97428331    -0.26200
C451        C  0.64369169  0.02428077  0.95851709     0.36500
C452        C  0.68651945  0.02277301  0.95445462    -0.27800
F453        F  0.70894017  0.91358717  0.49278947    -0.19900
H454        H  0.62962711  0.92250692  0.49519429     0.15800
F455        F  0.62319379  0.06119073  0.94810199    -0.23600
H456        H  0.70213741  0.05127464  0.94397073     0.17600
C457        C  0.96659951  0.70667444  0.74712749    -0.27700
C458        C  0.00309148  0.72669310  0.73238389     0.06000
C459        C  0.03984619  0.70002556  0.72493036     0.25600
C460        C  0.03977364  0.65518227  0.73133644    -0.12100
C461        C  0.00319393  0.63497046  0.74508386    -0.26100
C462        C  0.96648606  0.66171416  0.75323252     0.36400
C463        C  0.00276278  0.77493759  0.72515556     0.06000
F464        F  0.07596199  0.71684956  0.70965523    -0.19900
H465        H  0.06861576  0.63600668  0.72441587     0.15800
F466        F  0.93023415  0.64462567  0.76728849    -0.23600
H467        H  0.93786424  0.72598396  0.75447031     0.17600
C468        C  0.97188414  0.79594341  0.70081748     0.25600
C469        C  0.97209221  0.84089342  0.69461588    -0.12100
C470        C  0.00350376  0.86610395  0.71132737    -0.26200
C471        C  0.03444963  0.84522196  0.73522704     0.36500
C472        C  0.03372095  0.80064703  0.74253300    -0.27800
F473        F  0.94213561  0.77284026  0.68138487    -0.19900
H474        H  0.94820551  0.85578710  0.67539305     0.15800
F475        F  0.06507726  0.86822919  0.75274681    -0.23600
H476        H  0.05743278  0.78632799  0.76244078     0.17600
C477        C  0.96820675  0.21474284  0.79888694    -0.27700
C478        C  0.00432932  0.23096310  0.77649587     0.06000
C479        C  0.03840919  0.20096751  0.76311272     0.25600
C480        C  0.03586122  0.15647304  0.77122795    -0.12100
C481        C  0.99930413  0.14020954  0.79263803    -0.26100
C482        C  0.96551965  0.17041171  0.80660165     0.36400
C483        C  0.00580667  0.27880499  0.76752522     0.06000
F484        F  0.07392731  0.21420708  0.74056911    -0.19900
H485        H  0.06249760  0.13452862  0.75982192     0.15800
F486        F  0.92954738  0.15738455  0.82815179    -0.23600
H487        H  0.94169763  0.23663783  0.81105761     0.17600
C488        C  0.97248914  0.30158215  0.74955291     0.25600
C489        C  0.97316354  0.34647761  0.74362625    -0.12100
C490        C  0.00727914  0.37028023  0.75433380    -0.26200
C491        C  0.04098120  0.34746118  0.77132020     0.36500
C492        C  0.04003592  0.30265249  0.77807190    -0.27800
F493        F  0.93930170  0.28033497  0.73664981    -0.19900
H494        H  0.94681305  0.36265451  0.73019774     0.15800
F495        F  0.07442892  0.36871868  0.78328218    -0.23600
H496        H  0.06591862  0.28683628  0.79283786     0.17600
C497        C  0.02101049  0.79591206  0.56001198    -0.27700
C498        C  0.98992838  0.77192855  0.04060794     0.06000
C499        C  0.95862578  0.79404656  0.01861528     0.25600
C500        C  0.96086078  0.83823671  0.01170371    -0.12100
C501        C  0.99461904  0.86093897  0.02568246    -0.26100
C502        C  0.02364158  0.83993561  0.55231567     0.36400
C503        C  0.99303726  0.72363231  0.03762983     0.06000
F504        F  0.92802195  0.77221877  0.99930208    -0.19900
H505        H  0.93802441  0.85360702  0.99130029     0.15800
F506        F  0.05584598  0.86120421  0.56837472    -0.23600
H507        H  0.04464304  0.77992102  0.57867572     0.17600
C508        C  0.03006334  0.70058973  0.01827868     0.25600
C509        C  0.03205695  0.65527297  0.01098134    -0.12100
C510        C  0.99717628  0.63180727  0.02207587    -0.26200
C511        C  0.96021970  0.65479260  0.04202960     0.36500
C512        C  0.95840126  0.70018126  0.05003766    -0.27800
F513        F  0.06393895  0.72189475  0.00406090    -0.19900
H514        H  0.06085302  0.63860679  0.99539001     0.15800
F515        F  0.92577419  0.63359925  0.05387842    -0.23600
H516        H  0.92968453  0.71710416  0.06545200     0.17600
C517        C  0.97037828  0.21466994  0.46048797    -0.27700
C518        C  0.00945312  0.23120376  0.46212453     0.06000
C519        C  0.04296576  0.20227203  0.96763431     0.25600
C520        C  0.03676419  0.15871926  0.97528505    -0.12100
C521        C  0.99709250  0.14302705  0.47766633    -0.26100
C522        C  0.96417461  0.17114335  0.46770977     0.36400
C523        C  0.01378681  0.27903988  0.46346735     0.06000
F524        F  0.08155524  0.21636761  0.96744043    -0.19900
H525        H  0.06286655  0.13793085  0.98209913     0.15800
F526        F  0.92537307  0.15758980  0.46801494    -0.23600
H527        H  0.94388507  0.23605073  0.45670088     0.17600
C528        C  0.99253282  0.30480704  0.43232952     0.25600
C529        C  0.99177628  0.35018594  0.43940246    -0.12100
C530        C  0.01322187  0.37067317  0.47641755    -0.26200
C531        C  0.03624510  0.34522858  0.50576766     0.36500
C532        C  0.03602383  0.29986180  0.49978330    -0.27800
F533        F  0.97223601  0.28618543  0.39530161    -0.19900
H534        H  0.97446906  0.36943023  0.41585262     0.15800
F535        F  0.05701842  0.36427395  0.04211402    -0.23600
H536        H  0.05190863  0.28111711  0.02506943     0.17600
loop_ 
_geom_bond_atom_site_label_1 
_geom_bond_atom_site_label_2 
_geom_bond_distance 
_geom_bond_site_symmetry_2 
_ccdc_geom_bond_type 
O1           C11   1.289       .  A
O1         Ni277   1.958   1_554  S
O2           C12   1.289       .  A
O2           Ni9   1.960       .  S
O3           C13   1.282   1_455  A
O3           Ni9   1.917       .  S
O4           C14   1.280       .  A
O4         Ni277   1.919       .  S
O5           C14   1.281   1_655  A
O5          Ni10   1.919   1_556  S
O6           C13   1.281       .  A
O6         Ni278   1.916       .  S
O7           C12   1.289   1_655  A
O7         Ni278   1.958       .  S
O8           C11   1.290   1_655  A
O8          Ni10   1.961       .  S
Ni9         O269   1.958       .  S
Ni9         O272   1.919       .  S
Ni9        Ni278   2.381   1_455  S
Ni10        O274   1.916       .  S
Ni10        O275   1.958   1_554  S
Ni10       Ni277   2.381   1_654  S
C11          C27   1.521       .  S
C12          C28   1.520       .  S
C13         C242   1.483       .  S
C14         C262   1.472       .  S
O15          C25   1.286   1_655  A
O15         Ni23   1.943       .  S
O16          C26   1.287   1_655  A
O16         Ni23   1.946       .  S
O17          C27   1.288   1_655  A
O17         Ni23   1.959       .  S
O18          C28   1.289   1_655  A
O18         Ni23   1.959       .  S
O19          C28   1.288       .  A
O19         Ni24   1.958       .  S
O20          C27   1.289       .  A
O20         Ni24   1.960       .  S
O21          C26   1.286       .  A
O21         Ni24   1.943       .  S
O22          C25   1.286       .  A
O22         Ni24   1.942       .  S
Ni23        Ni24   2.375   1_655  S
C25         C222   1.511       .  S
C26         C193   1.515       .  S
O29         C318   1.270       .  A
O29         Ni35   1.906       .  S
O30          C39   1.272   1_565  A
O30         Ni53   1.924       .  S
O31         Ni35   1.928       .  S
O31         Ni53   1.973   1_455  S
O31        Ni315   1.864   1_565  S
O31          H54   0.958   1_565  S
C32          O49   1.244   1_655  A
C32          O41   1.255       .  A
C32          C69   1.451       .  S
O33         C307   1.270   1_554  A
O33         Ni52   1.912       .  S
O34          C36   1.274   1_554  A
O34         Ni52   1.906       .  S
Ni35         O38   1.892       .  S
Ni35         O40   1.906       .  S
C36          O46   1.282   1_656  A
C36         C253   1.488       .  S
O37          C43   1.247   1_655  A
O37         Ni53   1.900       .  S
O38          C43   1.256       .  A
C39         O301   1.270       .  A
C39         C173   1.491   1_545  S
O40          C42   1.272       .  A
O41         Ni52   1.891       .  S
C42          O48   1.280   1_455  A
C42         C233   1.481   1_455  S
C43          C58   1.457       .  S
H44          O45   0.962   1_565  S
O45         Ni47   1.983   1_655  S
O45         Ni52   1.932       .  S
O45        Ni321   1.876   1_544  S
O46         Ni47   1.952       .  S
Ni47         O51   1.929       .  S
Ni47         O49   1.897       .  S
Ni47        O299   1.864   1_544  S
O48         Ni53   1.952       .  S
C50          O51   1.274   1_565  A
C50         O297   1.270   1_554  A
C50         C153   1.489   1_565  S
Ni53        O313   1.876   1_565  S
O55          C76   1.277   1_565  A
O55         Ni61   1.944       .  S
O56          C65   1.270   1_565  A
O56         Ni79   1.904   1_565  S
O57         Ni61   1.920   1_545  S
O57         Ni79   1.980   1_455  S
O57         Ni73   1.858       .  S
O57          H80   0.966       .  S
C58          O75   1.242       .  A
C58          O67   1.263   1_565  A
O59          C65   1.277       .  A
O59         Ni78   1.942       .  S
O60          C62   1.278       .  A
O60         Ni78   1.926       .  S
Ni61         O64   1.878   1_455  S
Ni61         O66   1.924       .  S
C62          O72   1.288   1_655  A
C62         C213   1.515       .  S
O63          C69   1.241       .  A
O63         Ni79   1.890       .  S
O64          C69   1.263   1_565  A
C65         C133   1.495   1_545  S
O66          C68   1.278       .  A
O67         Ni78   1.877   1_455  S
C68          O74   1.289   1_455  A
C68         C202   1.503       .  S
H70          O71   0.966       .  S
O71         Ni79   1.848   1_565  S
O71         Ni73   1.969   1_665  S
O71         Ni78   1.918   1_565  S
O72         Ni73   1.985       .  S
Ni73         O77   1.897       .  S
Ni73         O75   1.894   1_545  S
O74         Ni79   1.988   1_565  S
C76          O77   1.266       .  A
C76         C113   1.494       .  S
O81          C91   1.289       .  A
O81        Ni357   1.960       .  S
O82          C92   1.289       .  A
O82         Ni89   1.959   1_554  S
O83          C93   1.282   1_565  A
O83         Ni89   1.920   1_554  S
O84         C362   1.281       .  A
O84         Ni89   1.919       .  S
O85          C94   1.281   1_545  A
O85         Ni90   1.915       .  S
O86         C361   1.281       .  A
O86         Ni90   1.917       .  S
O87          C92   1.290   1_545  A
O87        Ni358   1.963       .  S
O88          C91   1.288   1_545  A
O88         Ni90   1.956       .  S
Ni89        O349   1.960       .  S
Ni89       Ni358   2.380   1_566  S
Ni90        O355   1.963       .  S
Ni90       Ni357   2.380   1_545  S
C91         C106   1.518       .  S
C92         C105   1.522       .  S
C93         O354   1.281       .  A
C93         C162   1.482       .  S
C94         O352   1.281       .  A
C94         C182   1.482       .  S
O95         C105   1.289       .  A
O95        Ni103   1.960       .  S
O96         C106   1.289       .  A
O96        Ni103   1.958       .  S
O97         C107   1.283       .  A
O97        Ni103   1.925       .  S
O98         C108   1.284       .  A
O98        Ni103   1.929       .  S
O99         C108   1.282   1_545  A
O99        Ni104   1.921       .  S
O100        C107   1.282   1_545  A
O100       Ni104   1.920       .  S
O101        C106   1.289   1_545  A
O101       Ni104   1.957       .  S
O102        C105   1.289   1_545  A
O102       Ni104   1.961       .  S
Ni103      Ni104   2.378   1_565  S
C107        C122   1.491       .  S
C108        C142   1.494       .  S
C109        C110   1.401       .  A
C109        C114   1.398       .  A
C109        H119   1.083       .  S
C110        C115   1.487       .  S
C110        C111   1.407   1_545  A
C111        C112   1.403       .  A
C111        F116   1.356       .  S
C112        C113   1.408   1_565  A
C112        H117   1.083       .  S
C113        C114   1.415       .  A
C114        F118   1.358       .  S
C115        C120   1.406       .  A
C115        C124   1.404   1_545  A
C120        C121   1.401       .  A
C120        F125   1.358       .  S
C121        C122   1.409   1_545  A
C121        H126   1.083       .  S
C122        C123   1.411       .  A
C123        C124   1.401       .  A
C123        F127   1.357       .  S
C124        H128   1.083       .  S
C129        C130   1.407   1_545  A
C129        C134   1.405       .  A
C129        H139   1.083       .  S
C130        C135   1.489       .  S
C130        C131   1.405       .  A
C131        C132   1.398       .  A
C131        F136   1.357       .  S
C132        C133   1.409       .  A
C132        H137   1.083       .  S
C133        C134   1.412   1_565  A
C134        F138   1.357       .  S
C135        C140   1.407       .  A
C135        C144   1.403   1_565  A
C140        C141   1.403       .  A
C140        F145   1.357       .  S
C141        C142   1.409       .  A
C141        H146   1.083       .  S
C142        C143   1.413   1_565  A
C143        C144   1.401       .  A
C143        F147   1.357       .  S
C144        H148   1.083       .  S
C149        C150   1.409       .  A
C149        C154   1.408       .  A
C149        H159   1.083       .  S
C150        C155   1.487       .  S
C150        C419   1.403   1_544  A
C151        C152   1.388       .  A
C151        C418   1.403   1_565  A
C151        F156   1.358       .  S
C152        C421   1.409   1_565  A
C152        H157   1.083       .  S
C153        C154   1.410       .  A
C153        C420   1.409   1_544  A
C154        F158   1.357       .  S
C155        C160   1.407       .  A
C155        C164   1.406   1_545  A
C160        C161   1.402       .  A
C160        F165   1.357   1_554  S
C161        C162   1.408       .  A
C161        H166   1.083   1_554  S
C162        C163   1.406   1_545  A
C163        C164   1.396       .  A
C163        F167   1.357       .  S
C164        H168   1.083       .  S
C169        C174   1.389       .  A
C169        C438   1.399   1_544  A
C169        H179   1.084       .  S
C170        C175   1.482       .  S
C170        C171   1.408       .  A
C170        C437   1.399   1_565  A
C171        C172   1.407       .  A
C171        F176   1.357       .  S
C172        C173   1.410       .  A
C172        H177   1.083       .  S
C173        C442   1.413   1_565  A
C174        C441   1.413   1_544  A
C174        F178   1.358       .  S
C175        C184   1.404   1_565  A
C175        C448   1.405       .  A
C180        C181   1.401       .  A
C180        C443   1.405       .  A
C180        F185   1.357       .  S
C181        C450   1.407       .  A
C181        H186   1.083       .  S
C182        C183   1.408   1_565  A
C182        C449   1.407       .  A
C183        C184   1.395       .  A
C183        F187   1.358       .  S
C184        H188   1.084       .  S
C189        C190   1.411   1_655  A
C189        C194   1.413       .  A
C189        H199   1.082       .  S
C190        C195   1.519       .  S
C190        C191   1.414       .  A
C191        C192   1.410       .  A
C191        F196   1.357       .  S
C192        C193   1.411       .  A
C192        H197   1.083       .  S
C193        C194   1.414   1_455  A
C194        F198   1.357       .  S
C195        C200   1.416   1_455  A
C195        C204   1.411       .  A
C200        C201   1.413       .  A
C200        F205   1.357       .  S
C201        C202   1.408   1_655  A
C201        H206   1.083       .  S
C202        C203   1.410       .  A
C203        C204   1.408       .  A
C203        F207   1.358       .  S
C204        H208   1.082       .  S
C209        C210   1.409   1_655  A
C209        C214   1.408       .  A
C209        H219   1.082       .  S
C210        C215   1.520       .  S
C210        C211   1.415       .  A
C211        C212   1.415       .  A
C211        F216   1.357       .  S
C212        C213   1.412   1_455  A
C212        H217   1.083       .  S
C213        C214   1.414       .  A
C214        F218   1.357       .  S
C215        C220   1.415   1_455  A
C215        C224   1.411       .  A
C220        C221   1.410       .  A
C220        F225   1.357       .  S
C221        C222   1.408   1_655  A
C221        H226   1.083       .  S
C222        C223   1.414       .  A
C223        C224   1.413       .  A
C223        F227   1.357       .  S
C224        H228   1.082       .  S
C229        C234   1.398       .  A
C229        C498   1.405   1_455  A
C229        H239   1.083       .  S
C230        C235   1.486       .  S
C230        C231   1.408       .  A
C230        C497   1.405   1_655  A
C231        C232   1.398       .  A
C231        F236   1.357       .  S
C232        C233   1.404       .  A
C232        H237   1.083       .  S
C233        C502   1.409   1_655  A
C234        C501   1.409   1_455  A
C234        F238   1.358       .  S
C235        C240   1.409   1_655  A
C235        C244   1.404       .  A
C240        C241   1.396       .  A
C240        F245   1.358       .  S
C241        C242   1.404   1_455  A
C241        H246   1.083       .  S
C242        C243   1.410       .  A
C243        C244   1.400       .  A
C243        F247   1.357       .  S
C244        H248   1.083       .  S
C249        C250   1.405   1_655  A
C249        C254   1.397       .  A
C249        H259   1.083       .  S
C250        C255   1.490       .  S
C250        C519   1.408       .  A
C251        C252   1.400       .  A
C251        C518   1.408       .  A
C251        F256   1.357       .  S
C252        C521   1.407   1_455  A
C252        H257   1.083       .  S
C253        C254   1.411       .  A
C253        C520   1.407   1_655  A
C254        F258   1.358       .  S
C255        C260   1.410   1_455  A
C255        C264   1.409       .  A
C260        C261   1.399       .  A
C260        F265   1.357       .  S
C261        C262   1.402   1_655  A
C261        H266   1.084       .  S
C262        C263   1.403   1_556  A
C263        C264   1.399   1_554  A
C263        F535   1.358       .  S
C264        H536   1.083   1_556  S
F267        C531   1.358       .  S
H268        C532   1.083       .  S
O269        C279   1.289       .  A
O270        C280   1.289       .  A
O270       Ni277   1.960       .  S
O271        C281   1.282   1_455  A
O271       Ni277   1.917   1_554  S
O272        C282   1.280       .  A
O273        C282   1.281   1_655  A
O273       Ni278   1.919       .  S
O274        C281   1.281       .  A
O275        C280   1.289   1_655  A
O276        C279   1.290   1_655  A
O276       Ni278   1.961       .  S
C279        C295   1.521       .  S
C280        C296   1.520       .  S
C281        C510   1.483       .  S
C282        C530   1.472       .  S
O283        C293   1.286   1_655  A
O283       Ni291   1.943       .  S
O284        C294   1.287   1_655  A
O284       Ni291   1.946       .  S
O285        C295   1.288   1_655  A
O285       Ni291   1.959       .  S
O286        C296   1.289   1_655  A
O286       Ni291   1.959       .  S
O287        C296   1.288       .  A
O287       Ni292   1.958       .  S
O288        C295   1.289       .  A
O288       Ni292   1.960       .  S
O289        C294   1.286       .  A
O289       Ni292   1.943       .  S
O290        C293   1.286       .  A
O290       Ni292   1.942       .  S
Ni291      Ni292   2.375   1_655  S
C293        C490   1.511       .  S
C294        C461   1.515       .  S
O297       Ni303   1.906       .  S
O298        C307   1.272   1_565  A
O298       Ni321   1.924       .  S
O299       Ni303   1.928       .  S
O299       Ni321   1.973   1_455  S
O299        H322   0.958   1_565  S
C300        O317   1.244   1_655  A
C300        O309   1.255       .  A
C300        C337   1.451       .  S
O301       Ni320   1.912       .  S
O302        C304   1.274       .  A
O302       Ni320   1.906       .  S
Ni303       O306   1.892       .  S
Ni303       O308   1.906       .  S
C304        O314   1.282   1_655  A
C304        C521   1.488       .  S
O305        C311   1.247   1_655  A
O305       Ni321   1.900       .  S
O306        C311   1.256       .  A
C307        C441   1.491   1_545  S
O308        C310   1.272   1_556  A
O309       Ni320   1.891       .  S
C310        O316   1.280   1_454  A
C310        C501   1.481   1_455  S
C311        C326   1.457       .  S
H312        O313   0.962   1_565  S
O313       Ni315   1.983   1_655  S
O313       Ni320   1.932       .  S
O314       Ni315   1.952       .  S
Ni315       O319   1.929       .  S
Ni315       O317   1.897       .  S
O316       Ni321   1.952       .  S
C318        O319   1.274   1_565  A
C318        C421   1.489   1_565  S
O323        C344   1.277   1_565  A
O323       Ni329   1.944       .  S
O324        C333   1.270   1_565  A
O324       Ni347   1.904   1_565  S
O325       Ni329   1.920   1_545  S
O325       Ni347   1.980   1_455  S
O325       Ni341   1.858       .  S
O325        H348   0.966       .  S
C326        O343   1.242       .  A
C326        O335   1.263   1_565  A
O327        C333   1.277       .  A
O327       Ni346   1.942       .  S
O328        C330   1.278       .  A
O328       Ni346   1.926       .  S
Ni329       O332   1.878   1_455  S
Ni329       O334   1.924       .  S
C330        O340   1.288   1_655  A
C330        C481   1.515       .  S
O331        C337   1.241       .  A
O331       Ni347   1.890       .  S
O332        C337   1.263   1_565  A
C333        C401   1.495   1_545  S
O334        C336   1.278       .  A
O335       Ni346   1.877   1_455  S
C336        O342   1.289   1_455  A
C336        C470   1.503       .  S
H338        O339   0.966       .  S
O339       Ni347   1.848   1_565  S
O339       Ni341   1.969   1_665  S
O339       Ni346   1.918   1_565  S
O340       Ni341   1.985       .  S
Ni341       O345   1.897       .  S
Ni341       O343   1.894   1_545  S
O342       Ni347   1.988   1_565  S
C344        O345   1.266       .  A
C344        C381   1.494       .  S
O349        C359   1.289       .  A
O350        C360   1.289       .  A
O350       Ni357   1.959       .  S
O351        C361   1.282   1_565  A
O351       Ni357   1.920       .  S
O352       Ni357   1.919       .  S
O353        C362   1.281   1_545  A
O353       Ni358   1.915   1_556  S
O354       Ni358   1.917       .  S
O355        C360   1.290   1_545  A
O356        C359   1.288   1_545  A
O356       Ni358   1.956   1_556  S
C359        C374   1.518       .  S
C360        C373   1.522       .  S
C361        C430   1.482       .  S
C362        C450   1.482       .  S
O363        C373   1.289       .  A
O363       Ni371   1.960       .  S
O364        C374   1.289       .  A
O364       Ni371   1.958       .  S
O365        C375   1.283       .  A
O365       Ni371   1.925       .  S
O366        C376   1.284       .  A
O366       Ni371   1.929       .  S
O367        C376   1.282   1_545  A
O367       Ni372   1.921       .  S
O368        C375   1.282   1_545  A
O368       Ni372   1.920       .  S
O369        C374   1.289   1_545  A
O369       Ni372   1.957       .  S
O370        C373   1.289   1_545  A
O370       Ni372   1.961       .  S
Ni371      Ni372   2.378   1_565  S
C375        C390   1.491       .  S
C376        C410   1.494       .  S
C377        C378   1.401       .  A
C377        C382   1.398       .  A
C377        H387   1.083       .  S
C378        C383   1.487       .  S
C378        C379   1.407   1_545  A
C379        C380   1.403       .  A
C379        F384   1.356       .  S
C380        C381   1.408   1_565  A
C380        H385   1.083       .  S
C381        C382   1.415       .  A
C382        F386   1.358       .  S
C383        C388   1.406       .  A
C383        C392   1.404   1_545  A
C388        C389   1.401       .  A
C388        F393   1.358       .  S
C389        C390   1.409   1_545  A
C389        H394   1.083       .  S
C390        C391   1.411       .  A
C391        C392   1.401       .  A
C391        F395   1.357       .  S
C392        H396   1.083       .  S
C397        C398   1.407   1_545  A
C397        C402   1.405       .  A
C397        H407   1.083       .  S
C398        C403   1.489       .  S
C398        C399   1.405       .  A
C399        C400   1.398       .  A
C399        F404   1.357       .  S
C400        C401   1.409       .  A
C400        H405   1.083       .  S
C401        C402   1.412   1_565  A
C402        F406   1.357       .  S
C403        C408   1.407       .  A
C403        C412   1.403   1_565  A
C408        C409   1.403       .  A
C408        F413   1.357       .  S
C409        C410   1.409       .  A
C409        H414   1.083       .  S
C410        C411   1.413   1_565  A
C411        C412   1.401       .  A
C411        F415   1.357       .  S
C412        H416   1.083       .  S
C417        C418   1.409       .  A
C417        C422   1.408       .  A
C417        H427   1.083       .  S
C418        C423   1.487       .  S
C419        C420   1.388       .  A
C419        F424   1.358       .  S
C420        H425   1.083       .  S
C421        C422   1.410       .  A
C422        F426   1.357       .  S
C423        C428   1.407       .  A
C423        C432   1.406   1_545  A
C428        C429   1.402       .  A
C428        F433   1.357       .  S
C429        C430   1.408       .  A
C429        H434   1.083       .  S
C430        C431   1.406   1_545  A
C431        C432   1.396       .  A
C431        F435   1.357       .  S
C432        H436   1.083       .  S
C437        C442   1.389       .  A
C437        H447   1.084       .  S
C438        C443   1.482       .  S
C438        C439   1.408       .  A
C439        C440   1.407       .  A
C439        F444   1.357       .  S
C440        C441   1.410       .  A
C440        H445   1.083       .  S
C442        F446   1.358       .  S
C443        C452   1.404   1_565  A
C448        C449   1.401       .  A
C448        F453   1.357       .  S
C449        H454   1.083       .  S
C450        C451   1.408   1_565  A
C451        C452   1.395       .  A
C451        F455   1.358       .  S
C452        H456   1.084       .  S
C457        C458   1.411   1_655  A
C457        C462   1.413       .  A
C457        H467   1.082       .  S
C458        C463   1.519       .  S
C458        C459   1.414       .  A
C459        C460   1.410       .  A
C459        F464   1.357       .  S
C460        C461   1.411       .  A
C460        H465   1.083       .  S
C461        C462   1.414   1_455  A
C462        F466   1.357       .  S
C463        C468   1.416   1_455  A
C463        C472   1.411       .  A
C468        C469   1.413       .  A
C468        F473   1.357       .  S
C469        C470   1.408   1_655  A
C469        H474   1.083       .  S
C470        C471   1.410       .  A
C471        C472   1.408       .  A
C471        F475   1.358       .  S
C472        H476   1.082       .  S
C477        C478   1.409   1_655  A
C477        C482   1.408       .  A
C477        H487   1.082       .  S
C478        C483   1.520       .  S
C478        C479   1.415       .  A
C479        C480   1.415       .  A
C479        F484   1.357       .  S
C480        C481   1.412   1_455  A
C480        H485   1.083       .  S
C481        C482   1.414       .  A
C482        F486   1.357       .  S
C483        C488   1.415   1_455  A
C483        C492   1.411       .  A
C488        C489   1.410       .  A
C488        F493   1.357       .  S
C489        C490   1.408   1_655  A
C489        H494   1.083       .  S
C490        C491   1.414       .  A
C491        C492   1.413       .  A
C491        F495   1.357       .  S
C492        H496   1.082       .  S
C497        C502   1.398       .  A
C497        H507   1.083       .  S
C498        C503   1.486       .  S
C498        C499   1.408       .  A
C499        C500   1.398       .  A
C499        F504   1.357   1_554  S
C500        C501   1.404       .  A
C500        H505   1.083   1_554  S
C502        F506   1.358       .  S
C503        C508   1.409   1_655  A
C503        C512   1.404       .  A
C508        C509   1.396       .  A
C508        F513   1.358       .  S
C509        C510   1.404   1_455  A
C509        H514   1.083   1_554  S
C510        C511   1.410       .  A
C511        C512   1.400       .  A
C511        F515   1.357       .  S
C512        H516   1.083       .  S
C517        C518   1.405   1_655  A
C517        C522   1.397       .  A
C517        H527   1.083       .  S
C518        C523   1.490       .  S
C519        C520   1.400       .  A
C519        F524   1.357       .  S
C520        H525   1.083       .  S
C521        C522   1.411       .  A
C522        F526   1.358       .  S
C523        C528   1.410   1_455  A
C523        C532   1.409       .  A
C528        C529   1.399       .  A
C528        F533   1.357       .  S
C529        C530   1.402   1_655  A
C529        H534   1.084       .  S
C530        C531   1.403       .  A
C531        C532   1.399       .  A
