geometry optimzed in LAMMPS
_audit_creation_date              2020-11-30 
_audit_creation_method            'lammps2cif' 
_symmetry_space_group_name_H-M    'P1' 
_symmetry_Int_Tables_number       1 
_symmetry_cell_setting            triclinic 
loop_ 
_symmetry_equiv_pos_as_xyz 
  x,y,z 
_cell_length_a                    22.51043698 
_cell_length_b                    22.35789396123149 
_cell_length_c                    71.545542068986 
_cell_angle_alpha                 90.87028670268391 
_cell_angle_beta                  90.66682412931172 
_cell_angle_gamma                 90.32783263446919 
loop_ 
_atom_site_label 
_atom_site_type_symbol 
_atom_site_fract_x 
_atom_site_fract_y 
_atom_site_fract_z 
_atom_site_charge 
O1          O  0.23036532  0.56142392  0.80008302    -0.56600
C2          C  0.28691968  0.73400244  0.78662852     0.76100
O3          O  0.12228743  0.70019344  0.82497400    -0.57700
C4          C  0.22674561  0.53581746  0.81572957     0.76000
C5          C  0.27150201  0.70676560  0.84867953     0.78400
Cd6        Cd  0.21926547  0.66555961  0.81372880     1.37500
O7          O  0.30616897  0.68609016  0.79353344    -0.56600
O8          O  0.29294908  0.66496707  0.83879609    -0.55400
C9          C  0.09133899  0.67438726  0.81235505     0.78400
O10         O  0.22559997  0.73191349  0.84221283    -0.57700
O11         O  0.23511520  0.74915858  0.79134085    -0.56200
O12         O  0.22028923  0.56958788  0.82986024    -0.56200
O13         O  0.11938723  0.64797633  0.79942624    -0.55400
O14         O  0.37635640  0.75624269  0.77023802    -0.56600
C15         C  0.52573401  0.82836719  0.75410948     0.76100
O16         O  0.34962056  0.77563290  0.72627683    -0.57700
C17         C  0.32359137  0.77067273  0.77418365     0.76000
C18         C  0.38292880  0.97154717  0.75591880     0.78400
Cd19       Cd  0.39770146  0.84334183  0.75023196     1.37500
O20         O  0.49348729  0.83137533  0.76845554    -0.56600
O21         O  0.40692565  0.93904333  0.76812644    -0.55400
C22         C  0.37145464  0.80167733  0.71232464     0.78400
O23         O  0.36072568  0.94461519  0.74180185    -0.57700
O24         O  0.49889312  0.82885797  0.73853390    -0.56200
O25         O  0.30464985  0.81878113  0.76719226    -0.56200
O26         O  0.40316862  0.84731684  0.71585840    -0.55400
C27         C  0.56188494  0.68503584  0.96366285    -0.01200
C28         C  0.32228584  0.48175309  0.60715193    -0.01200
O29         O  0.31902120  0.31896376  0.80474845    -0.56600
C30         C  0.22914465  0.47036154  0.81784056     0.76100
O31         O  0.13178663  0.31155256  0.83700921    -0.57700
C32         C  0.30090388  0.26904199  0.79830735     0.76000
C33         C  0.28600813  0.32085426  0.85995686     0.78400
Cd34       Cd  0.22965337  0.34175659  0.82383659     1.37500
O35         O  0.23638613  0.43432441  0.80422878    -0.56600
O36         O  0.25503516  0.28027947  0.85193972    -0.55400
C37         C  0.10165138  0.32291446  0.82246755     0.78400
O38         O  0.29064436  0.36961976  0.85139397    -0.57700
O39         O  0.22347573  0.44724172  0.83373387    -0.56200
O40         O  0.24972634  0.25268567  0.80332905    -0.56200
O41         O  0.13056227  0.33955510  0.80841992    -0.55400
O42         O  0.39050317  0.24591280  0.78200777    -0.56600
C43         C  0.53627027  0.16147998  0.75906180     0.76100
O44         O  0.36968405  0.07006738  0.74394683    -0.57700
C45         C  0.33718223  0.23248199  0.78547682     0.76000
C46         C  0.38042666  0.23508987  0.72560487     0.78400
Cd47       Cd  0.40714354  0.16535438  0.75816814     1.37500
O48         O  0.50754192  0.16889371  0.77405305    -0.56600
O49         O  0.41922616  0.25028885  0.73766612    -0.55400
C50         C  0.38529602  0.03729783  0.75739765     0.78400
O51         O  0.35362706  0.18594398  0.72814846    -0.57700
O52         O  0.50577300  0.15605526  0.74418933    -0.56200
O53         O  0.31664709  0.18640769  0.77714685    -0.56200
O54         O  0.40706175  0.06383778  0.77168410    -0.55400
C55         C  0.58238207  0.22164335  0.96358095    -0.01200
O56         O  0.80975480  0.67652754  0.80098904    -0.56600
C57         C  0.89144765  0.52334098  0.81866936     0.76100
O58         O  0.99890697  0.69806268  0.82660162    -0.57700
C59         C  0.82929642  0.72393513  0.79379334     0.76000
C60         C  0.86267674  0.69106306  0.85627986     0.78400
Cd61       Cd  0.90066019  0.65337834  0.81933245     1.37500
O62         O  0.89367933  0.55208649  0.80360464    -0.56600
O63         O  0.82683110  0.68583484  0.84258536    -0.55400
C64         C  0.02628893  0.67170996  0.81353886     0.78400
O65         O  0.91673274  0.68093452  0.85286837    -0.57700
O66         O  0.89034820  0.55426136  0.83356383    -0.56200
O67         O  0.88218547  0.73858793  0.79801902    -0.56200
O68         O  0.99521722  0.63994858  0.80233268    -0.55400
O69         O  0.73730472  0.75009587  0.77908192    -0.56600
C70         C  0.59106319  0.82633837  0.75503134     0.76100
O71         O  0.75163326  0.92422186  0.74206328    -0.57700
C72         C  0.79242919  0.75972031  0.78109182     0.76000
C73         C  0.74046232  0.75882394  0.72083603     0.78400
Cd74       Cd  0.71998809  0.82618753  0.75471116     1.37500
O75         O  0.62024273  0.82280572  0.77024121    -0.56600
O76         O  0.70404926  0.74317743  0.73314788    -0.55400
C77         C  0.73835659  0.95470186  0.75645922     0.78400
O78         O  0.77034257  0.80612451  0.72416981    -0.57700
O79         O  0.62108176  0.82946107  0.74026908    -0.56200
O80         O  0.81410221  0.80137346  0.77149711    -0.56200
O81         O  0.72009273  0.92577132  0.77034473    -0.55400
C82         C  0.78627014  0.48530934  0.60516611    -0.01200
O83         O  0.89583700  0.42480649  0.80468271    -0.56600
C84         C  0.83640026  0.25812064  0.79578794     0.76100
O85         O  0.00665579  0.30645786  0.83630831    -0.57700
C86         C  0.89303580  0.45760035  0.81924855     0.76000
C87         C  0.85598379  0.29127694  0.85693372     0.78400
Cd88       Cd  0.90733880  0.32919325  0.82233822     1.37500
O89         O  0.81775506  0.30700257  0.80259045    -0.56600
O90         O  0.87474204  0.25347392  0.84508080    -0.55400
C91         C  0.03629750  0.32031713  0.82210818     0.78400
O92         O  0.86254640  0.34577522  0.85302530    -0.57700
O93         O  0.88825873  0.24285575  0.80068295    -0.56200
O94         O  0.89419133  0.43106580  0.83470540    -0.56200
O95         O  0.00667659  0.33474273  0.80777663    -0.55400
O96         O  0.74973562  0.23821520  0.77686979    -0.56600
C97         C  0.60163595  0.15880204  0.75854168     0.76100
O98         O  0.80362371  0.17320926  0.73144509    -0.57700
C99         C  0.79984569  0.22106831  0.78282439     0.76000
C100        C  0.74043160  0.02052695  0.75670127     0.78400
Cd101      Cd  0.73004721  0.15014247  0.75586971     1.37500
O102        O  0.63425352  0.16483353  0.77301356    -0.56600
O103        O  0.72588865  0.05081979  0.77097722    -0.55400
C104        C  0.76939495  0.20492987  0.72163073     0.78400
O105        O  0.75370821  0.04987009  0.74236163    -0.57700
O106        O  0.62811722  0.14996565  0.74326542    -0.56200
O107        O  0.81693105  0.17040700  0.77698787    -0.56200
O108        O  0.71670171  0.21041955  0.72734457    -0.55400
O109        O  0.74664245  0.27150026  0.29715081    -0.56600
C110        C  0.59314322  0.18899485  0.31220820     0.76100
O111        O  0.74312217  0.07920694  0.32844596    -0.57700
C112        C  0.78883417  0.24943820  0.28778105     0.76000
C113        C  0.77996115  0.22726932  0.34803493     0.78400
Cd114      Cd  0.72321392  0.17829456  0.31448134     1.37500
O115        O  0.62425085  0.19011093  0.29757289    -0.56600
O116        O  0.72396762  0.22641012  0.34606847    -0.55400
C117        C  0.73588699  0.04887062  0.31355220     0.78400
O118        O  0.80939558  0.20479292  0.33477938    -0.57700
O119        O  0.62170185  0.18597512  0.32747792    -0.56200
O120        O  0.79857755  0.19426873  0.28992124    -0.56200
O121        O  0.72587200  0.07809736  0.29886508    -0.55400
O122        O  0.81502680  0.34071083  0.27261084    -0.56600
C123        C  0.88563492  0.48562639  0.25568272     0.76100
O124        O  0.99538884  0.33546068  0.23606100    -0.57700
C125        C  0.82535557  0.28600431  0.27525957     0.76000
C126        C  0.85856188  0.33505947  0.21197135     0.78400
Cd127      Cd  0.89752717  0.35772462  0.25005420     1.37500
O128        O  0.92898907  0.45713307  0.26251941    -0.56600
O129        O  0.87122251  0.29225693  0.22265972    -0.55400
C130        C  0.02595592  0.34275688  0.25086381     0.78400
O131        O  0.86410002  0.38714051  0.21882578    -0.57700
O132        O  0.84537554  0.45476584  0.24759112    -0.56200
O133        O  0.86938703  0.26454723  0.26672724    -0.56200
O134        O  0.99735208  0.35401894  0.26562937    -0.55400
C135        C  0.56736187  0.25802940  0.10796898    -0.01200
O136        O  0.49660714  0.19258511  0.29692849    -0.56600
C137        C  0.32863275  0.25053359  0.28611822     0.76100
O138        O  0.36766029  0.08192480  0.32597008    -0.57700
C139        C  0.52727337  0.18888622  0.31184348     0.76000
C140        C  0.35072196  0.23334008  0.34686550     0.78400
Cd141      Cd  0.39700115  0.18027411  0.31281822     1.37500
O142        O  0.37096342  0.27308740  0.29568777    -0.56600
O143        O  0.40470636  0.23843589  0.34236978    -0.55400
C144        C  0.38175020  0.05069105  0.31184552     0.78400
O145        O  0.31800031  0.20248544  0.33588667    -0.57700
O146        O  0.31992212  0.19501142  0.28793311    -0.56200
O147        O  0.49826263  0.18320522  0.32673401    -0.56200
O148        O  0.39996275  0.07906365  0.29784340    -0.55400
O149        O  0.20445262  0.45736025  0.26403024    -0.56600
C150        C  0.29118383  0.28706960  0.27370907     0.76100
O151        O  0.11945380  0.33353100  0.23557433    -0.57700
C152        C  0.23429963  0.48742368  0.25260428     0.76000
C153        C  0.26083451  0.32792768  0.21140957     0.78400
Cd154      Cd  0.21969045  0.35891259  0.24845394     1.37500
O155        O  0.29985393  0.34271423  0.27202170    -0.56600
O156        O  0.28364270  0.30512569  0.22587675    -0.55400
C157        C  0.09142382  0.34202054  0.25057601     0.78400
O158        O  0.21849886  0.36387452  0.21401441    -0.57700
O159        O  0.24833773  0.26466349  0.26429178    -0.56200
O160        O  0.26183946  0.45799545  0.24026040    -0.56200
O161        O  0.12266149  0.35319009  0.26502436    -0.55400
C162        C  0.80388238  0.50501761  0.46226159    -0.01200
O163        O  0.61914620  0.84445430  0.29781041    -0.56600
C164        C  0.78833113  0.78839706  0.28802330     0.76100
O165        O  0.74399795  0.95380014  0.32833549    -0.60100
C166        C  0.58933702  0.85746647  0.31223498     0.76000
C167        C  0.73186863  0.78004086  0.34654994     0.78400
Cd168      Cd  0.71667519  0.85487874  0.31440206     1.37500
O169        O  0.73251829  0.78212417  0.28866228    -0.56600
O170        O  0.69100164  0.77277793  0.33451121    -0.55400
C171        C  0.73515202  0.98306777  0.31354487     0.78400
O172        O  0.76728250  0.82355545  0.34415064    -0.57700
O173        O  0.81126394  0.82726957  0.29898379    -0.56200
O174        O  0.61831289  0.87011882  0.32701671    -0.56200
O175        O  0.72222642  0.95293557  0.29893793    -0.55400
O176        O  0.80256720  0.70738438  0.26647707    -0.56600
C177        C  0.88476676  0.55139011  0.25565589     0.76100
O178        O  0.86256574  0.65212922  0.21780554    -0.57700
C179        C  0.82444571  0.75173484  0.27532076     0.76000
C180        C  0.02131024  0.69367764  0.25006883     0.78400
Cd181      Cd  0.89394223  0.67925248  0.24956949     1.37500
O182        O  0.92817031  0.58203093  0.26186761    -0.56600
O183        O  0.99259422  0.68431782  0.26485461    -0.55400
C184        C  0.85574282  0.70453343  0.21184726     0.78400
O185        O  0.99110935  0.70044835  0.23522264    -0.57700
O186        O  0.84285614  0.58013053  0.24812799    -0.56200
O187        O  0.87889677  0.76235582  0.27273269    -0.56200
O188        O  0.86781552  0.74697304  0.22322396    -0.55400
C189        C  0.56835218  0.73097812  0.10970929    -0.01200
O190        O  0.30740713  0.70882609  0.26619634    -0.56600
C191        C  0.23285773  0.55313529  0.25270663     0.76100
O192        O  0.11547896  0.69955401  0.23512131    -0.57700
C193        C  0.28531430  0.75012185  0.27613419     0.76000
C194        C  0.25509563  0.72976170  0.21487396     0.78400
Cd195      Cd  0.21436311  0.68115056  0.24947270     1.37500
O196        O  0.20312397  0.58238652  0.26456107    -0.56600
O197        O  0.23936818  0.67545703  0.21598168    -0.55400
C198        C  0.08648855  0.69331910  0.25000080     0.78400
O199        O  0.24835739  0.76214099  0.22933058    -0.57700
O200        O  0.25763865  0.58316171  0.24014217    -0.56200
O201        O  0.22989599  0.75775929  0.27456128    -0.56200
O202        O  0.11642224  0.68390796  0.26470358    -0.55400
O203        O  0.37846312  0.78441226  0.28845203    -0.56600
C204        C  0.52430179  0.85732652  0.31230862     0.76100
O205        O  0.36559030  0.95617734  0.32643380    -0.57700
C206        C  0.32243470  0.78754433  0.28867797     0.76000
C207        C  0.38104910  0.78508667  0.34690629     0.78400
Cd208      Cd  0.39701122  0.85650051  0.31426775     1.37500
O209        O  0.49316825  0.84545018  0.29784203    -0.56600
O210        O  0.35444059  0.83476280  0.34566446    -0.55400
C211        C  0.38093633  0.98481397  0.31210967     0.78400
O212        O  0.41430589  0.77042822  0.33354320    -0.57700
O213        O  0.49667860  0.86867592  0.32722414    -0.56200
O214        O  0.30031923  0.82469181  0.30012484    -0.56200
O215        O  0.39895042  0.95396578  0.29835948    -0.55400
C216        C  0.33802592  0.51886321  0.46361438    -0.01200
C217        C  0.33694101  0.62296371  0.42059775     0.19900
C218        C  0.34013945  0.60510387  0.40181437    -0.18100
C219        C  0.33734064  0.64715746  0.38771724    -0.10400
C220        C  0.33311509  0.70847744  0.39214422     0.22200
C221        C  0.32604370  0.72616597  0.41092371    -0.19800
C222        C  0.32799731  0.68356022  0.42514165    -0.10600
C223        C  0.33873968  0.75395395  0.37732545    -0.14800
C224        C  0.37441244  0.74425391  0.36265348    -0.28600
C225        C  0.35067713  0.57788732  0.43477758    -0.02900
C226        C  0.32180255  0.57123815  0.45103035    -0.39400
H227        H  0.34634979  0.55841938  0.39805853     0.13300
H228        H  0.34004526  0.63158835  0.37335486     0.13000
H229        H  0.32193526  0.77309597  0.41463883     0.12400
H230        H  0.32589656  0.69822779  0.43960596     0.12600
H231        H  0.31548598  0.79616212  0.37879971     0.15400
H232        H  0.40048709  0.70358852  0.36190360     0.14200
H233        H  0.38381597  0.54481951  0.43093238     0.11800
H234        H  0.28684756  0.60223408  0.45487112     0.13900
C235        C  0.44118885  0.74252057  0.14589859     0.19900
C236        C  0.44259832  0.76955364  0.16367174    -0.18100
C237        C  0.39337693  0.76646478  0.17525842    -0.10400
C238        C  0.34195543  0.73499501  0.16941670     0.22200
C239        C  0.33977722  0.70984877  0.15128527    -0.19800
C240        C  0.38890354  0.71416439  0.13948630    -0.10600
C241        C  0.29519291  0.71964215  0.18304030    -0.14800
C242        C  0.28428418  0.75377953  0.19823999    -0.28600
C243        C  0.49796999  0.73374220  0.13628003    -0.02900
C244        C  0.50768676  0.74509897  0.11810347    -0.39400
H245        H  0.48307665  0.79041635  0.16897606     0.13300
H246        H  0.39768837  0.78475364  0.18930738     0.13000
H247        H  0.30112610  0.68452525  0.14659653     0.12400
H248        H  0.38765225  0.69156950  0.12597968     0.12600
H249        H  0.27364610  0.67620004  0.18148725     0.15400
H250        H  0.30313678  0.79848853  0.19946667     0.14200
H251        H  0.53449675  0.71761785  0.14487682     0.11800
H252        H  0.47228515  0.76334928  0.10949935     0.13900
C253        C  0.71833518  0.76951158  0.13430611     0.19900
C254        C  0.76709775  0.73125497  0.13619215    -0.18100
C255        C  0.80187093  0.73254580  0.15247966    -0.10400
C256        C  0.78853809  0.77230644  0.16725414     0.22200
C257        C  0.74397017  0.81503994  0.16453521    -0.19800
C258        C  0.70903402  0.81373115  0.14819904    -0.10600
C259        C  0.81745950  0.76714813  0.18595559    -0.14800
C260        C  0.83400955  0.71371302  0.19261255    -0.28600
C261        C  0.67460612  0.75631879  0.11903395    -0.02900
C262        C  0.61586617  0.76496568  0.12124195    -0.39400
H263        H  0.77605353  0.69759686  0.12556122     0.13300
H264        H  0.83781519  0.70086126  0.15372891     0.13000
H265        H  0.73391062  0.84723061  0.17549858     0.12400
H266        H  0.67347919  0.84581292  0.14687164     0.12600
H267        H  0.81965405  0.80647275  0.19506837     0.15400
H268        H  0.82767546  0.67360262  0.18406059     0.14200
H269        H  0.68898905  0.72815993  0.10744188     0.11800
H270        H  0.60129900  0.79221664  0.13297878     0.13900
C271        C  0.51154601  0.50581511  0.46928656     0.19900
C272        C  0.55021126  0.45757078  0.47150942    -0.18100
C273        C  0.61117306  0.46708155  0.47345997    -0.10400
C274        C  0.63514712  0.52524027  0.47262906     0.22200
C275        C  0.59624814  0.57392779  0.47140827    -0.19800
C276        C  0.53483113  0.56439841  0.46968908    -0.10600
C277        C  0.70031751  0.53578964  0.47202106    -0.14800
C278        C  0.73742691  0.49465425  0.46479143    -0.28600
C279        C  0.44843345  0.49244745  0.46485550    -0.02900
C280        C  0.40339349  0.52942915  0.46912414    -0.39400
H281        H  0.53321637  0.41214725  0.47143935     0.13300
H282        H  0.63928236  0.42851975  0.47532631     0.13000
H283        H  0.61357783  0.61915746  0.47091952     0.12400
H284        H  0.50625347  0.60261896  0.46772304     0.12600
H285        H  0.71778021  0.57947892  0.47619229     0.15400
H286        H  0.71899560  0.45252187  0.45957026     0.14200
H287        H  0.43991217  0.45022113  0.45775619     0.11800
H288        H  0.41342231  0.57074980  0.47674463     0.13900
C289        C  0.78475678  0.69212077  0.38957338     0.19900
C290        C  0.80946449  0.70593011  0.40725245    -0.18100
C291        C  0.81096996  0.66279651  0.42132249    -0.10400
C292        C  0.78829697  0.60483636  0.41778764     0.22200
C293        C  0.76597147  0.59067149  0.39986291    -0.19800
C294        C  0.76452780  0.63344359  0.38591564    -0.10600
C295        C  0.78439831  0.55771805  0.43215767    -0.14800
C296        C  0.81163981  0.55817802  0.44911489    -0.28600
C297        C  0.78048508  0.73898537  0.37505853    -0.02900
C298        C  0.73662911  0.73798505  0.36212762    -0.39400
H299        H  0.82609269  0.75055611  0.41032601     0.13300
H300        H  0.82847891  0.67559839  0.43494798     0.13000
H301        H  0.74909217  0.54620036  0.39662584     0.12400
H302        H  0.74764413  0.62014685  0.37223209     0.12600
H303        H  0.75803392  0.51843290  0.42832279     0.15400
H304        H  0.83883680  0.59605018  0.45355360     0.14200
H305        H  0.81292585  0.77510173  0.37520678     0.11800
H306        H  0.70226021  0.70384379  0.36265235     0.13900
C307        C  0.34129889  0.32417295  0.39321049     0.19900
C308        C  0.38173948  0.33569966  0.40792641    -0.18100
C309        C  0.36670675  0.37342372  0.42287907    -0.10400
C310        C  0.31084001  0.40122735  0.42339117     0.22200
C311        C  0.26972732  0.38856471  0.40892410    -0.19800
C312        C  0.28450890  0.35012039  0.39404119    -0.10600
C313        C  0.29896617  0.45136683  0.43672901    -0.14800
C314        C  0.32755698  0.45818149  0.45337366    -0.28600
C315        C  0.36236578  0.28978710  0.37658685    -0.02900
C316        C  0.32655485  0.26277874  0.36378870    -0.39400
H317        H  0.42593692  0.31693002  0.40756246     0.13300
H318        H  0.40036864  0.38347026  0.43339667     0.13000
H319        H  0.22692879  0.41039561  0.40875513     0.12400
H320        H  0.25248458  0.34358100  0.38279244     0.12600
H321        H  0.27107316  0.48701477  0.43154308     0.15400
H322        H  0.34758742  0.41878328  0.45940964     0.14200
H323        H  0.41014779  0.28668231  0.37480723     0.11800
H324        H  0.27877132  0.26218286  0.36559412     0.13900
C325        C  0.55900788  0.43224064  0.11440095     0.19900
C326        C  0.58472885  0.47325086  0.12718567    -0.18100
C327        C  0.57969454  0.53483482  0.12445391    -0.10400
C328        C  0.54821842  0.55657808  0.10889751     0.22200
C329        C  0.52103254  0.51563612  0.09641918    -0.19800
C330        C  0.52648512  0.45409183  0.09905716    -0.10600
C331        C  0.53964761  0.62144531  0.10590737    -0.14800
C332        C  0.57941628  0.66361200  0.11145845    -0.28600
C333        C  0.56505472  0.36722963  0.11787418    -0.02900
C334        C  0.56300104  0.32519214  0.10415024    -0.39400
H335        H  0.60898276  0.45753842  0.13931646     0.13300
H336        H  0.59920573  0.56513410  0.13476912     0.13000
H337        H  0.49543464  0.53138859  0.08456379     0.12400
H338        H  0.50403288  0.42400944  0.08930145     0.12600
H339        H  0.49852701  0.63455662  0.09917948     0.15400
H340        H  0.62003020  0.64914133  0.11830774     0.14200
H341        H  0.57342736  0.35330677  0.13216020     0.11800
H342        H  0.55671932  0.33909343  0.08978270     0.13900
C343        C  0.35676157  0.26823353  0.17068585     0.19900
C344        C  0.39954552  0.22309649  0.16893010    -0.18100
C345        C  0.43199927  0.21624493  0.15249327    -0.10400
C346        C  0.42297506  0.25517177  0.13744433     0.22200
C347        C  0.37789667  0.29799123  0.13875472    -0.19800
C348        C  0.34533152  0.30483720  0.15518725    -0.10600
C349        C  0.46288056  0.25614157  0.12097933    -0.14800
C350        C  0.52074454  0.24161055  0.12241382    -0.28600
C351        C  0.32860037  0.27791653  0.18925731    -0.02900
C352        C  0.28273460  0.31500048  0.19240903    -0.39400
H353        H  0.40895141  0.19376904  0.18051175     0.13300
H354        H  0.46478593  0.18115187  0.15180515     0.13000
H355        H  0.36985878  0.32839203  0.12735939     0.12400
H356        H  0.31332898  0.34051818  0.15577570     0.12600
H357        H  0.44723572  0.27772194  0.10835446     0.15400
H358        H  0.53675546  0.22335563  0.13550746     0.14200
H359        H  0.34779736  0.25445726  0.20106082     0.11800
H360        H  0.26105858  0.33797719  0.18102867     0.13900
C361        C  0.71925524  0.26565279  0.13460492     0.19900
C362        C  0.76699775  0.30607077  0.13636731    -0.18100
C363        C  0.80369758  0.30622292  0.15224973    -0.10400
C364        C  0.79305093  0.26604345  0.16678232     0.22200
C365        C  0.74881514  0.22222115  0.16433141    -0.19800
C366        C  0.71182022  0.22222454  0.14850280    -0.10600
C367        C  0.82346397  0.27222381  0.18522158    -0.14800
C368        C  0.83739884  0.32624208  0.19258094    -0.28600
C369        C  0.67303382  0.27702272  0.12007938    -0.02900
C370        C  0.62729949  0.23939080  0.11630944    -0.39400
H371        H  0.77399161  0.33980935  0.12589109     0.13300
H372        H  0.83888996  0.33930522  0.15345089     0.13000
H373        H  0.74012281  0.19050695  0.17529332     0.12400
H374        H  0.67526160  0.19071987  0.14800503     0.12600
H375        H  0.82795202  0.23271478  0.19378325     0.15400
H376        H  0.82904935  0.36633716  0.18460792     0.14200
H377        H  0.67344575  0.32106580  0.11393256     0.11800
H378        H  0.63015903  0.19335376  0.12080761     0.13900
C379        C  0.84343648  0.38831685  0.42444928     0.19900
C380        C  0.87593494  0.38331599  0.40787658    -0.18100
C381        C  0.85822463  0.34312191  0.39363958    -0.10400
C382        C  0.80716855  0.30716533  0.39566075     0.22200
C383        C  0.77647966  0.31001982  0.41259060    -0.19800
C384        C  0.79428040  0.34991653  0.42682480    -0.10600
C385        C  0.78032672  0.27204071  0.37981525    -0.14800
C386        C  0.81021945  0.25461884  0.36452555    -0.28600
C387        C  0.85399046  0.44121009  0.43700160    -0.02900
C388        C  0.82864301  0.44655854  0.45393512    -0.39400
H389        H  0.91317097  0.41300079  0.40549529     0.13300
H390        H  0.88248174  0.34338121  0.38068335     0.13000
H391        H  0.73680711  0.28329602  0.41447752     0.12400
H392        H  0.76654727  0.35325824  0.43904389     0.12600
H393        H  0.73322293  0.26147415  0.38057154     0.15400
H394        H  0.85789509  0.26130089  0.36379103     0.14200
H395        H  0.87397617  0.48012364  0.43066181     0.11800
H396        H  0.81577720  0.40574437  0.46091006     0.13900
C397        C  0.84080806  0.49114071  0.51556974     0.19900
C398        C  0.84282568  0.44271560  0.52781717    -0.18100
C399        C  0.84344482  0.45198977  0.54718109    -0.10400
C400        C  0.84186718  0.51033648  0.55482859     0.22200
C401        C  0.84384837  0.55889064  0.54257442    -0.19800
C402        C  0.84333276  0.54955616  0.52314999    -0.10600
C403        C  0.82680822  0.52211016  0.57479017    -0.14800
C404        C  0.82595520  0.47980611  0.58810048    -0.28600
C405        C  0.82701816  0.47832286  0.49549626    -0.02900
C406        C  0.83212496  0.51774632  0.48146020    -0.39400
H407        H  0.84057070  0.39726958  0.52238468     0.13300
H408        H  0.84080106  0.41306886  0.55590366     0.13000
H409        H  0.84205711  0.60428813  0.54802318     0.12400
H410        H  0.84081436  0.58819665  0.51426655     0.12600
H411        H  0.80718864  0.56530298  0.57799753     0.15400
H412        H  0.84847827  0.43766928  0.58568971     0.14200
H413        H  0.80722349  0.43488866  0.49231408     0.11800
H414        H  0.85323191  0.56081091  0.48412044     0.13900
C415        C  0.80408194  0.37774066  0.64784436     0.19900
C416        C  0.84053244  0.37301321  0.66381126    -0.18100
C417        C  0.82626221  0.33310346  0.67799226    -0.10400
C418        C  0.77451469  0.29767200  0.67662839     0.22200
C419        C  0.73873423  0.30138427  0.66049637    -0.19800
C420        C  0.75357206  0.34053367  0.64616025    -0.10600
C421        C  0.75373931  0.26138041  0.69255225    -0.14800
C422        C  0.79093290  0.23528510  0.70477847    -0.28600
C423        C  0.81416345  0.42819845  0.63489888    -0.02900
C424        C  0.79379456  0.42871885  0.61704214    -0.39400
H425        H  0.87897833  0.40190789  0.66563448     0.13300
H426        H  0.85403701  0.33253140  0.69044215     0.13000
H427        H  0.69831641  0.27511464  0.65922021     0.12400
H428        H  0.72341320  0.34406158  0.63434394     0.12600
H429        H  0.70608166  0.25613224  0.69426814     0.15400
H430        H  0.83853547  0.23671175  0.70254549     0.14200
H431        H  0.83551737  0.46769947  0.64092273     0.11800
H432        H  0.77957438  0.38652165  0.61067929     0.13900
C433        C  0.77031221  0.61258904  0.64268452     0.19900
C434        C  0.71867829  0.63588046  0.65065805    -0.18100
C435        C  0.72220310  0.67871138  0.66491969    -0.10400
C436        C  0.77767741  0.69846044  0.67184059     0.22200
C437        C  0.82950202  0.67895118  0.66289942    -0.19800
C438        C  0.82593767  0.63587561  0.64840096    -0.10600
C439        C  0.78104269  0.73551360  0.68922074    -0.14800
C440        C  0.74477168  0.72316916  0.70348369    -0.28600
C441        C  0.76335779  0.55917721  0.63041651    -0.02900
C442        C  0.80028572  0.54223624  0.61662222    -0.39400
H443        H  0.67533518  0.61912746  0.64631878     0.13300
H444        H  0.68137774  0.69464476  0.67107314     0.13000
H445        H  0.87267570  0.69419040  0.66788147     0.12400
H446        H  0.86653485  0.61834081  0.64255154     0.12600
H447        H  0.81398510  0.77106272  0.69054390     0.15400
H448        H  0.71491474  0.68487232  0.70230495     0.14200
H449        H  0.72410282  0.53188913  0.63278509     0.11800
H450        H  0.83876767  0.56951640  0.61337049     0.13900
C451        C  0.58151741  0.20914307  0.05572691     0.19900
C452        C  0.62882472  0.20150157  0.04329489    -0.18100
C453        C  0.61831652  0.19610466  0.02400580    -0.10400
C454        C  0.56003625  0.19890217  0.01672554     0.22200
C455        C  0.51264026  0.20330228  0.02924481    -0.19800
C456        C  0.52310445  0.20799498  0.04853988    -0.10600
C457        C  0.54795567  0.20839755  0.99648570    -0.14800
C458        C  0.58542711  0.19254742  0.98271238    -0.28600
C459        C  0.59494580  0.22822403  0.07533867    -0.02900
C460        C  0.55655211  0.22386335  0.08963425    -0.39400
H461        H  0.67425549  0.20292853  0.04843878     0.13300
H462        H  0.65621203  0.19430295  0.01483100     0.13000
H463        H  0.46748014  0.20639068  0.02400887     0.12400
H464        H  0.48552015  0.21518598  0.05758201     0.12600
H465        H  0.50964483  0.23548253  0.99295136     0.15400
H466        H  0.62232576  0.16311277  0.98585376     0.14200
H467        H  0.63702904  0.25117948  0.07786699     0.11800
H468        H  0.51560027  0.19849889  0.08775720     0.13900
C469        C  0.76654320  0.20390244  0.89279981     0.19900
C470        C  0.72050944  0.16212061  0.88991461    -0.18100
C471        C  0.67736138  0.15383497  0.90356291    -0.10400
C472        C  0.68045704  0.18595069  0.92055442     0.22200
C473        C  0.72847221  0.22549211  0.92382614    -0.19800
C474        C  0.77120054  0.23418204  0.91012310    -0.10600
C475        C  0.62895037  0.18453372  0.93328678    -0.14800
C476        C  0.63361081  0.19829937  0.95170022    -0.28600
C477        C  0.80628232  0.21808782  0.87706771    -0.02900
C478        C  0.82628440  0.27396588  0.87425961    -0.39400
H479        H  0.71612734  0.13815433  0.87667224     0.13300
H480        H  0.64045419  0.12377530  0.90061951     0.13000
H481        H  0.73150776  0.25244212  0.93650980     0.12400
H482        H  0.80687212  0.26578976  0.91292267     0.12600
H483        H  0.58570356  0.17865848  0.92666061     0.15400
H484        H  0.67772607  0.20251683  0.95792787     0.14200
H485        H  0.81322580  0.18379687  0.86638562     0.11800
H486        H  0.81557773  0.30970094  0.88408877     0.13900
C487        C  0.43241409  0.24724293  0.93616559     0.19900
C488        C  0.39541082  0.29708452  0.93379882    -0.18100
C489        C  0.35715889  0.30085715  0.91833178    -0.10400
C490        C  0.35478620  0.25462701  0.90480984     0.22200
C491        C  0.38831090  0.20282496  0.90782407    -0.19800
C492        C  0.42726585  0.19927493  0.92321898    -0.10600
C493        C  0.31998998  0.26070053  0.88710026    -0.14800
C494        C  0.31574167  0.31340093  0.87831303    -0.28600
C495        C  0.48066673  0.25176102  0.95061691    -0.02900
C496        C  0.52143544  0.20897522  0.95419808    -0.39400
H497        H  0.39800309  0.33465429  0.94352852     0.13300
H498        H  0.33044237  0.34063335  0.91675932     0.13000
H499        H  0.38675397  0.16632012  0.89770157     0.12400
H500        H  0.45493285  0.16012094  0.92431291     0.12600
H501        H  0.30203034  0.22050402  0.88037786     0.15400
H502        H  0.33749281  0.35276528  0.88435784     0.14200
H503        H  0.48596629  0.29534527  0.95731611     0.11800
H504        H  0.51325676  0.16347103  0.94933547     0.13900
C505        C  0.28263013  0.50015785  0.55436816     0.19900
C506        C  0.26968888  0.54783674  0.54242816    -0.18100
C507        C  0.27529325  0.54136221  0.52300910    -0.10400
C508        C  0.29417446  0.48675855  0.51510405     0.22200
C509        C  0.30327877  0.43807422  0.52694474    -0.19800
C510        C  0.29765308  0.44450093  0.54630854    -0.10600
C511        C  0.31388161  0.48078687  0.49535964    -0.14800
C512        C  0.30283205  0.52043209  0.48169643    -0.28600
C513        C  0.28939654  0.51281730  0.57482760    -0.02900
C514        C  0.29371966  0.47022031  0.58796688    -0.39400
H515        H  0.25838401  0.59128199  0.54821167     0.13300
H516        H  0.26859506  0.58034916  0.51450228     0.13000
H517        H  0.31817767  0.39562572  0.52128324     0.12400
H518        H  0.30930029  0.40668658  0.55480322     0.12600
H519        H  0.34382271  0.44406194  0.49229083     0.15400
H520        H  0.27170184  0.55652922  0.48406116     0.14200
H521        H  0.29693638  0.55918195  0.57896093     0.11800
H522        H  0.28631508  0.42381222  0.58394063     0.13900
C523        C  0.48998289  0.48591017  0.59338268     0.19900
C524        C  0.53048071  0.53290215  0.59086932    -0.18100
C525        C  0.59165532  0.52324175  0.59278667    -0.10400
C526        C  0.61333571  0.46586312  0.59695590     0.22200
C527        C  0.57274960  0.41834504  0.59832816    -0.19800
C528        C  0.51183682  0.42805507  0.59645083    -0.10600
C529        C  0.67649698  0.45439888  0.60192740    -0.14800
C530        C  0.72207139  0.49118480  0.59775779    -0.28600
C531        C  0.42535296  0.49864116  0.59374282    -0.02900
C532        C  0.38884069  0.46950358  0.60536036    -0.39400
H533        H  0.51462694  0.57776854  0.58837163     0.13300
H534        H  0.62106429  0.56144841  0.59193016     0.13000
H535        H  0.58814408  0.37367362  0.60138379     0.12400
H536        H  0.48190523  0.39033361  0.59775344     0.12600
H537        H  0.68443048  0.41473722  0.61004498     0.15400
H538        H  0.71302840  0.52979102  0.58920796     0.14200
H539        H  0.40842988  0.53564980  0.58563881     0.11800
H540        H  0.40789344  0.43500356  0.61410521     0.13900
C541        C  0.30607160  0.39219591  0.65310493     0.19900
C542        C  0.30584309  0.40931570  0.67202368    -0.18100
C543        C  0.31028680  0.36656706  0.68592818    -0.10400
C544        C  0.31596650  0.30566649  0.68118846     0.22200
C545        C  0.31195923  0.28791793  0.66230336    -0.19800
C546        C  0.30736276  0.33096904  0.64829407    -0.10600
C547        C  0.32913504  0.26122338  0.69584156    -0.14800
C548        C  0.36718615  0.27484940  0.70991956    -0.28600
C549        C  0.31572807  0.43936855  0.63918781    -0.02900
C550        C  0.29863510  0.43624707  0.62104164    -0.39400
H551        H  0.30481207  0.45621776  0.67604467     0.13300
H552        H  0.31127131  0.38138898  0.70041593     0.13000
H553        H  0.31580324  0.24116487  0.65836518     0.12400
H554        H  0.30873771  0.31655229  0.63378636     0.12600
H555        H  0.30952574  0.21682064  0.69469532     0.15400
H556        H  0.38974171  0.31793755  0.71014336     0.14200
H557        H  0.34165019  0.47782728  0.64402167     0.11800
H558        H  0.27049727  0.39943304  0.61617972     0.13900
C559        C  0.54819556  0.73698446  0.05518398     0.19900
C560        C  0.50196430  0.72588691  0.04222864    -0.18100
C561        C  0.51301941  0.72334375  0.02301288    -0.10400
C562        C  0.57097133  0.73184141  0.01624894     0.22200
C563        C  0.61687646  0.74453700  0.02917273    -0.19800
C564        C  0.60583674  0.74706207  0.04838047    -0.10600
C565        C  0.58678740  0.71979790  0.99635613    -0.14800
C566        C  0.54685932  0.71529111  0.98219829    -0.28600
C567        C  0.53589525  0.73054675  0.07551101    -0.02900
C568        C  0.57304587  0.74975180  0.08929352    -0.39400
H569        H  0.45736075  0.71697987  0.04703311     0.13300
H570        H  0.47646491  0.71159395  0.01371894     0.13000
H571        H  0.66207064  0.75022744  0.02443324     0.12400
H572        H  0.64332191  0.75384150  0.05775987     0.12600
H573        H  0.63276898  0.70857558  0.99348583     0.15400
H574        H  0.50117988  0.72858566  0.98448334     0.14200
H575        H  0.49550442  0.70717305  0.07913919     0.11800
H576        H  0.61022525  0.77820814  0.08567171     0.13900
C577        C  0.60261100  0.51759361  0.95433142     0.19900
C578        C  0.58583507  0.48522744  0.97013611    -0.18100
C579        C  0.58700697  0.42280492  0.96978070    -0.10400
C580        C  0.60520139  0.39148430  0.95364308     0.22200
C581        C  0.62376697  0.42389880  0.93812697    -0.19800
C582        C  0.62259159  0.48627825  0.93848058    -0.10600
C583        C  0.59963024  0.32565814  0.95174831    -0.14800
C584        C  0.59471305  0.28854906  0.96633797    -0.28600
C585        C  0.59336883  0.58286464  0.95283902    -0.02900
C586        C  0.58122908  0.62045621  0.96725251    -0.39400
H587        H  0.56867749  0.50729356  0.98245790     0.13300
H588        H  0.57049704  0.39968016  0.98182340     0.13000
H589        H  0.63756814  0.40084615  0.92548254     0.12400
H590        H  0.63538500  0.51011160  0.92606798     0.12600
H591        H  0.59714700  0.30686506  0.93765265     0.15400
H592        H  0.60024148  0.30628601  0.98045715     0.14200
H593        H  0.59337826  0.60097310  0.93881410     0.11800
H594        H  0.58234485  0.60443440  0.98148034     0.13900
C595        C  0.75890597  0.72195417  0.89802907     0.19900
C596        C  0.69980658  0.74105278  0.89947426    -0.18100
C597        C  0.66987188  0.73842483  0.91645282    -0.10400
C598        C  0.69850467  0.71658398  0.93254117     0.22200
C599        C  0.75839277  0.69982538  0.93131369    -0.19800
C600        C  0.78845104  0.70257015  0.91429769    -0.10600
C601        C  0.66454804  0.70020945  0.94948024    -0.14800
C602        C  0.60931846  0.72048754  0.95306991    -0.28600
C603        C  0.78495386  0.71675439  0.87900081    -0.02900
C604        C  0.84252711  0.70572826  0.87542065    -0.39400
H605        H  0.67567035  0.75563118  0.88717863     0.13300
H606        H  0.62329240  0.74989691  0.91651975     0.13000
H607        H  0.78121733  0.68174173  0.94337548     0.12400
H608        H  0.83353347  0.68637345  0.91386003     0.12600
H609        H  0.68259237  0.66401856  0.95770545     0.15400
H610        H  0.59536096  0.76150053  0.94646977     0.14200
H611        H  0.75417192  0.71959960  0.86722875     0.11800
H612        H  0.87528395  0.70464447  0.88663418     0.13900
C613        C  0.33541425  0.62930937  0.63681963     0.19900
C614        C  0.37996426  0.67170041  0.64106276    -0.18100
C615        C  0.37695791  0.70765557  0.65717426    -0.10400
C616        C  0.32901803  0.70206237  0.66951163     0.22200
C617        C  0.28278794  0.66201217  0.66473151    -0.19800
C618        C  0.28573335  0.62607122  0.64855392    -0.10600
C619        C  0.32950607  0.73141807  0.68838119    -0.14800
C620        C  0.36320162  0.77957391  0.69288532    -0.28600
C621        C  0.34825444  0.58230254  0.62250752    -0.02900
C622        C  0.30724614  0.54402424  0.61515422    -0.39400
H623        H  0.41911087  0.67456606  0.63244938     0.13300
H624        H  0.41431983  0.73671865  0.66043286     0.13000
H625        H  0.24555953  0.65643719  0.67401970     0.12400
H626        H  0.25113144  0.59303993  0.64611934     0.12600
H627        H  0.30294193  0.71099091  0.69918328     0.15400
H628        H  0.38773281  0.80263139  0.68218089     0.14200
H629        H  0.39492225  0.57468942  0.62001081     0.11800
H630        H  0.26048124  0.55319115  0.61720239     0.13900
C631        C  0.43949599  0.71582830  0.92606075     0.19900
C632        C  0.40392233  0.76264088  0.91941604    -0.18100
C633        C  0.37039413  0.75548718  0.90282313    -0.10400
C634        C  0.37240579  0.70127073  0.89256648     0.22200
C635        C  0.40744075  0.65466773  0.89935017    -0.19800
C636        C  0.44075190  0.66177052  0.91570815    -0.10600
C637        C  0.34250705  0.69113212  0.87418359    -0.14800
C638        C  0.29841720  0.72420416  0.86693502    -0.28600
C639        C  0.48020809  0.72607830  0.94240870    -0.02900
C640        C  0.50559664  0.68021297  0.95150270    -0.39400
H641        H  0.40311944  0.80517443  0.92685121     0.13300
H642        H  0.34474139  0.79291021  0.89783819     0.13000
H643        H  0.41043682  0.61270091  0.89165124     0.12400
H644        H  0.46953155  0.62531389  0.91953784     0.12600
H645        H  0.35706302  0.65213618  0.86624153     0.15400
H646        H  0.28053665  0.76224780  0.87455218     0.14200
H647        H  0.49380689  0.77166456  0.94577667     0.11800
H648        H  0.48717603  0.63576997  0.94904927     0.13900
loop_ 
_geom_bond_atom_site_label_1 
_geom_bond_atom_site_label_2 
_geom_bond_distance 
_geom_bond_site_symmetry_2 
_ccdc_geom_bond_type 
O1            C4   1.268       .  A
O1           Cd6   2.526       .  S
C2           O11   1.264       .  A
C2            O7   1.263       .  A
C2           C17   1.476       .  S
O3            C9   1.264       .  A
O3           Cd6   2.460       .  S
C4           O12   1.263       .  A
C4           C30   1.475       .  S
C5           O10   1.265       .  A
C5            O8   1.265       .  A
C5          C638   1.479       .  S
Cd6          O13   2.486       .  S
Cd6          O12   2.452       .  S
Cd6          O11   2.507       .  S
Cd6           O7   2.490       .  S
Cd6          O10   2.505       .  S
Cd6           O8   2.429       .  S
C9           O13   1.267       .  A
C9           C64   1.469       .  S
O14          C17   1.266       .  A
O14         Cd19   2.482       .  S
C15          O24   1.262       .  A
C15          O20   1.265       .  A
C15          C70   1.472       .  S
O16          C22   1.266       .  A
O16         Cd19   2.502       .  S
C17          O25   1.267       .  A
C18          O23   1.264       .  A
C18          O21   1.263       .  A
C18          C50   1.473   1_565  S
Cd19         O26   2.467       .  S
Cd19         O25   2.496       .  S
Cd19         O24   2.457       .  S
Cd19         O20   2.524       .  S
Cd19         O23   2.497       .  S
Cd19         O21   2.483       .  S
C22          O26   1.263       .  A
C22         C620   1.478       .  S
C27         C566   1.522       .  S
C27         C586   1.535       .  S
C27         C602   1.540       .  S
C27         C640   1.531       .  S
C28         C514   1.527       .  S
C28         C532   1.531       .  S
C28         C550   1.531       .  S
C28         C622   1.538       .  S
O29          C32   1.265       .  A
O29         Cd34   2.495       .  S
C30          O39   1.264       .  A
C30          O35   1.267       .  A
O31          C37   1.265       .  A
O31         Cd34   2.500       .  S
C32          O40   1.264       .  A
C32          C45   1.476       .  S
C33          O38   1.263       .  A
C33          O36   1.267       .  A
C33         C494   1.479       .  S
Cd34         O41   2.477       .  S
Cd34         O40   2.502       .  S
Cd34         O39   2.457       .  S
Cd34         O35   2.523       .  S
Cd34         O38   2.460       .  S
Cd34         O36   2.515       .  S
C37          O41   1.263       .  A
C37          C91   1.472       .  S
O42          C45   1.264       .  A
O42         Cd47   2.495       .  S
C43          O52   1.263       .  A
C43          O48   1.268       .  A
C43          C97   1.474       .  S
O44          C50   1.266       .  A
O44         Cd47   2.486       .  S
C45          O53   1.265       .  A
C46          O51   1.267       .  A
C46          O49   1.262       .  A
C46         C548   1.471       .  S
Cd47         O54   2.481       .  S
Cd47         O53   2.504       .  S
Cd47         O52   2.454       .  S
Cd47         O48   2.518       .  S
Cd47         O51   2.500       .  S
Cd47         O49   2.433       .  S
C50          O54   1.266       .  A
C55         C458   1.525       .  S
C55         C476   1.530       .  S
C55         C496   1.543       .  S
C55         C584   1.529       .  S
O56          C59   1.264       .  A
O56         Cd61   2.479       .  S
C57          O66   1.262       .  A
C57          O62   1.265       .  A
C57          C86   1.472       .  S
O58          C64   1.265   1_655  A
O58         Cd61   2.468       .  S
C59          O67   1.265       .  A
C59          C72   1.472       .  S
C60          O65   1.265       .  A
C60          O63   1.266       .  A
C60         C604   1.480       .  S
Cd61         O68   2.481       .  S
Cd61         O67   2.492       .  S
Cd61         O66   2.464       .  S
Cd61         O62   2.517       .  S
Cd61         O65   2.490       .  S
Cd61         O63   2.469       .  S
C64          O68   1.265   1_455  A
O69          C72   1.264       .  A
O69         Cd74   2.484       .  S
C70          O79   1.263       .  A
C70          O75   1.268       .  A
O71          C77   1.266       .  A
O71         Cd74   2.488       .  S
C72          O80   1.264       .  A
C73          O78   1.268       .  A
C73          O76   1.262       .  A
C73         C440   1.470       .  S
Cd74         O81   2.476       .  S
Cd74         O80   2.493       .  S
Cd74         O79   2.446       .  S
Cd74         O75   2.518       .  S
Cd74         O78   2.509       .  S
Cd74         O76   2.418       .  S
C77          O81   1.265       .  A
C77         C100   1.472   1_565  S
C82         C404   1.525       .  S
C82         C424   1.544       .  S
C82         C442   1.533       .  S
C82         C530   1.540       .  S
O83          C86   1.267       .  A
O83         Cd88   2.513       .  S
C84          O93   1.265       .  A
C84          O89   1.265       .  A
C84          C99   1.475       .  S
O85          C91   1.263       .  A
O85         Cd88   2.496   1_455  S
C86          O94   1.263       .  A
C87          O92   1.263       .  A
C87          O90   1.266       .  A
C87         C478   1.471       .  S
Cd88         O95   2.481   1_655  S
Cd88         O94   2.452       .  S
Cd88         O93   2.489       .  S
Cd88         O89   2.492       .  S
Cd88         O92   2.451       .  S
Cd88         O90   2.480       .  S
C91          O95   1.264       .  A
O96          C99   1.265       .  A
O96        Cd101   2.493       .  S
C97         O106   1.264       .  A
C97         O102   1.267       .  A
O98         C104   1.264       .  A
O98        Cd101   2.479       .  S
C99         O107   1.265       .  A
C100        O105   1.264       .  A
C100        O103   1.264       .  A
Cd101       O108   2.479       .  S
Cd101       O107   2.493       .  S
Cd101       O106   2.456       .  S
Cd101       O102   2.514       .  S
Cd101       O105   2.491       .  S
Cd101       O103   2.486       .  S
C104        O108   1.265       .  A
C104        C422   1.478       .  S
O109        C112   1.267       .  A
O109       Cd114   2.498       .  S
C110        O119   1.264       .  A
C110        O115   1.267       .  A
C110        C139   1.483       .  S
O111        C117   1.263       .  A
O111       Cd114   2.485       .  S
C112        O120   1.265       .  A
C112        C125   1.476       .  S
C113        O118   1.263       .  A
C113        O116   1.267       .  A
C113        C386   1.478       .  S
Cd114       O121   2.489       .  S
Cd114       O120   2.485       .  S
Cd114       O119   2.483       .  S
Cd114       O115   2.540       .  S
Cd114       O118   2.474       .  S
Cd114       O116   2.488       .  S
C117        O121   1.265       .  A
C117        C171   1.471   1_545  S
O122        C125   1.263       .  A
O122       Cd127   2.506       .  S
C123        O132   1.265       .  A
C123        O128   1.266       .  A
C123        C177   1.471       .  S
O124        C130   1.264   1_655  A
O124       Cd127   2.480       .  S
C125        O133   1.263       .  A
C126        O131   1.262       .  A
C126        O129   1.266       .  A
C126        C368   1.472       .  S
Cd127       O134   2.499       .  S
Cd127       O133   2.498       .  S
Cd127       O132   2.480       .  S
Cd127       O128   2.479       .  S
Cd127       O131   2.450       .  S
Cd127       O129   2.492       .  S
C130        O134   1.266   1_455  A
C130        C157   1.474       .  S
C135        C334   1.534       .  S
C135        C350   1.529       .  S
C135        C370   1.531       .  S
C135        C460   1.524       .  S
O136        C139   1.268       .  A
O136       Cd141   2.541       .  S
C137        O146   1.265       .  A
C137        O142   1.265       .  A
C137        C150   1.476       .  S
O138        C144   1.264       .  A
O138       Cd141   2.493       .  S
C139        O147   1.264       .  A
C140        O145   1.265       .  A
C140        O143   1.266       .  A
C140        C316   1.480       .  S
Cd141       O148   2.490       .  S
Cd141       O147   2.477       .  S
Cd141       O146   2.498       .  S
Cd141       O142   2.495       .  S
Cd141       O145   2.487       .  S
Cd141       O143   2.469       .  S
C144        O148   1.265       .  A
C144        C211   1.473   1_545  S
O149        C152   1.263       .  A
O149       Cd154   2.479       .  S
C150        O159   1.267       .  A
C150        O155   1.266       .  A
O151        C157   1.264       .  A
O151       Cd154   2.487       .  S
C152        O160   1.264       .  A
C152        C191   1.470       .  S
C153        O158   1.264       .  A
C153        O156   1.266       .  A
C153        C352   1.476       .  S
Cd154       O161   2.501       .  S
Cd154       O160   2.486       .  S
Cd154       O159   2.492       .  S
Cd154       O155   2.487       .  S
Cd154       O158   2.468       .  S
Cd154       O156   2.478       .  S
C157        O161   1.264       .  A
C162        C278   1.526       .  S
C162        C296   1.537       .  S
C162        C388   1.538       .  S
C162        C406   1.529       .  S
O163        C166   1.269       .  A
O163       Cd168   2.492       .  S
C164        O173   1.266       .  A
C164        O169   1.265       .  A
C164        C179   1.470       .  S
O165        C171   1.267       .  A
O165       Cd168   2.483       .  S
C166        O174   1.264       .  A
C166        C204   1.464       .  S
C167        O172   1.269       .  A
C167        O170   1.261       .  A
C167        C298   1.472       .  S
Cd168       O175   2.474       .  S
Cd168       O174   2.425       .  S
Cd168       O173   2.486       .  S
Cd168       O169   2.469       .  S
Cd168       O172   2.513       .  S
Cd168       O170   2.421       .  S
C171        O175   1.265       .  A
O176        C179   1.263       .  A
O176       Cd181   2.478       .  S
C177        O186   1.264       .  A
C177        O182   1.263       .  A
O178        C184   1.262       .  A
O178       Cd181   2.439       .  S
C179        O187   1.263       .  A
C180        O185   1.266   1_455  A
C180        O183   1.266   1_455  A
C180        C198   1.467       .  S
Cd181       O188   2.502       .  S
Cd181       O187   2.498       .  S
Cd181       O186   2.491       .  S
Cd181       O182   2.481       .  S
Cd181       O185   2.473       .  S
Cd181       O183   2.465       .  S
C184        O188   1.267       .  A
C184        C260   1.473       .  S
C189        C244   1.531       .  S
C189        C262   1.534       .  S
C189        C332   1.535       .  S
C189        C568   1.531       .  S
O190        C193   1.264       .  A
O190       Cd195   2.471       .  S
C191        O200   1.263       .  A
C191        O196   1.263       .  A
O192        C198   1.264       .  A
O192       Cd195   2.480       .  S
C193        O201   1.264       .  A
C193        C206   1.468       .  S
C194        O199   1.265       .  A
C194        O197   1.267       .  A
C194        C242   1.473       .  S
Cd195       O202   2.471       .  S
Cd195       O201   2.483       .  S
Cd195       O200   2.488       .  S
Cd195       O196   2.485       .  S
Cd195       O199   2.456       .  S
Cd195       O197   2.469       .  S
C198        O202   1.264       .  A
O203        C206   1.264       .  A
O203       Cd208   2.463       .  S
C204        O213   1.264       .  A
C204        O209   1.267       .  A
O205        C211   1.267       .  A
O205       Cd208   2.490       .  S
C206        O214   1.266       .  A
C207        O212   1.262       .  A
C207        O210   1.269       .  A
C207        C224   1.469       .  S
Cd208       O215   2.474       .  S
Cd208       O214   2.485       .  S
Cd208       O213   2.430       .  S
Cd208       O209   2.487       .  S
Cd208       O212   2.415       .  S
Cd208       O210   2.506       .  S
C211        O215   1.265       .  A
C216        C226   1.531       .  S
C216        C280   1.535       .  S
C216        C314   1.548       .  S
C216        C512   1.525       .  S
C217        C225   1.472       .  S
C217        C218   1.399       .  A
C217        C222   1.405       .  A
C218        C219   1.390       .  A
C218        H227   1.084       .  S
C219        C220   1.406       .  A
C219        H228   1.082       .  S
C220        C223   1.486       .  S
C220        C221   1.406       .  A
C221        C222   1.405       .  A
C221        H229   1.083       .  S
C222        H230   1.082       .  S
C223        H231   1.086       .  S
C223        C224   1.345       .  D
C224        H232   1.086       .  S
C225        H233   1.088       .  S
C225        C226   1.348       .  D
C226        H234   1.086       .  S
C235        C243   1.471       .  S
C235        C236   1.400       .  A
C235        C240   1.403       .  A
C236        C237   1.394       .  A
C236        H245   1.083       .  S
C237        C238   1.407       .  A
C237        H246   1.082       .  S
C238        C241   1.485       .  S
C238        C239   1.406       .  A
C239        C240   1.403       .  A
C239        H247   1.083       .  S
C240        H248   1.084       .  S
C241        H249   1.087       .  S
C241        C242   1.345       .  D
C242        H250   1.086       .  S
C243        H251   1.088       .  S
C243        C244   1.349       .  D
C244        H252   1.086       .  S
C253        C261   1.487       .  S
C253        C254   1.402       .  A
C253        C258   1.409       .  A
C254        C255   1.396       .  A
C254        H263   1.083       .  S
C255        C256   1.407       .  A
C255        H264   1.082       .  S
C256        C259   1.488       .  S
C256        C257   1.403       .  A
C257        C258   1.401       .  A
C257        H265   1.083       .  S
C258        H266   1.082       .  S
C259        H267   1.087       .  S
C259        C260   1.346       .  D
C260        H268   1.086       .  S
C261        H269   1.087       .  S
C261        C262   1.348       .  D
C262        H270   1.085       .  S
C271        C279   1.480       .  S
C271        C272   1.400       .  A
C271        C276   1.408       .  A
C272        C273   1.393       .  A
C272        H281   1.083       .  S
C273        C274   1.407       .  A
C273        H282   1.081       .  S
C274        C277   1.486       .  S
C274        C275   1.404       .  A
C275        C276   1.401       .  A
C275        H283   1.083       .  S
C276        H284   1.082       .  S
C277        H285   1.087       .  S
C277        C278   1.347       .  D
C278        H286   1.086       .  S
C279        H287   1.080       .  S
C279        C280   1.347       .  D
C280        H288   1.087       .  S
C289        C297   1.489       .  S
C289        C290   1.405       .  A
C289        C294   1.406       .  A
C290        C291   1.405       .  A
C290        H299   1.082       .  S
C291        C292   1.408       .  A
C291        H300   1.081       .  S
C292        C295   1.486       .  S
C292        C293   1.403       .  A
C293        C294   1.393       .  A
C293        H301   1.083       .  S
C294        H302   1.083       .  S
C295        H303   1.087       .  S
C295        C296   1.353       .  D
C296        H304   1.084       .  S
C297        H305   1.085       .  S
C297        C298   1.345       .  D
C298        H306   1.085       .  S
C307        C315   1.490       .  S
C307        C308   1.404       .  A
C307        C312   1.408       .  A
C308        C309   1.398       .  A
C308        H317   1.082       .  S
C309        C310   1.407       .  A
C309        H318   1.082       .  S
C310        C313   1.488       .  S
C310        C311   1.405       .  A
C311        C312   1.403       .  A
C311        H319   1.083       .  S
C312        H320   1.082       .  S
C313        H321   1.085       .  S
C313        C314   1.353       .  D
C314        H322   1.085       .  S
C315        H323   1.087       .  S
C315        C316   1.347       .  D
C316        H324   1.085       .  S
C325        C333   1.485       .  S
C325        C326   1.403       .  A
C325        C330   1.408       .  A
C326        C327   1.399       .  A
C326        H335   1.084       .  S
C327        C328   1.407       .  A
C327        H336   1.082       .  S
C328        C331   1.483       .  S
C328        C329   1.402       .  A
C329        C330   1.398       .  A
C329        H337   1.084       .  S
C330        H338   1.081       .  S
C331        H339   1.082       .  S
C331        C332   1.349       .  D
C332        H340   1.086       .  S
C333        H341   1.088       .  S
C333        C334   1.349       .  D
C334        H342   1.086       .  S
C343        C351   1.492       .  S
C343        C344   1.404       .  A
C343        C348   1.410       .  A
C344        C345   1.399       .  A
C344        H353   1.084       .  S
C345        C346   1.408       .  A
C345        H354   1.081       .  S
C346        C349   1.490       .  S
C346        C347   1.402       .  A
C347        C348   1.400       .  A
C347        H355   1.084       .  S
C348        H356   1.079       .  S
C349        H357   1.086       .  S
C349        C350   1.347       .  D
C350        H358   1.086       .  S
C351        H359   1.087       .  S
C351        C352   1.347       .  D
C352        H360   1.082       .  S
C361        C369   1.488       .  S
C361        C362   1.403       .  A
C361        C366   1.411       .  A
C362        C363   1.397       .  A
C362        H371   1.084       .  S
C363        C364   1.406       .  A
C363        H372   1.083       .  S
C364        C367   1.483       .  S
C364        C365   1.401       .  A
C365        C366   1.398       .  A
C365        H373   1.084       .  S
C366        H374   1.080       .  S
C367        H375   1.087       .  S
C367        C368   1.344       .  D
C368        H376   1.086       .  S
C369        H377   1.085       .  S
C369        C370   1.348       .  D
C370        H378   1.085       .  S
C379        C387   1.490       .  S
C379        C380   1.404       .  A
C379        C384   1.410       .  A
C380        C381   1.401       .  A
C380        H389   1.083       .  S
C381        C382   1.409       .  A
C381        H390   1.081       .  S
C382        C385   1.489       .  S
C382        C383   1.402       .  A
C383        C384   1.397       .  A
C383        H391   1.083       .  S
C384        H392   1.082       .  S
C385        H393   1.087       .  S
C385        C386   1.345       .  D
C386        H394   1.085       .  S
C387        H395   1.085       .  S
C387        C388   1.349       .  D
C388        H396   1.086       .  S
C397        C405   1.489       .  S
C397        C398   1.404       .  A
C397        C402   1.407       .  A
C398        C399   1.398       .  A
C398        H407   1.083       .  S
C399        C400   1.408       .  A
C399        H408   1.080       .  S
C400        C403   1.492       .  S
C400        C401   1.407       .  A
C401        C402   1.402       .  A
C401        H409   1.083       .  S
C402        H410   1.082       .  S
C403        H411   1.087       .  S
C403        C404   1.353       .  D
C404        H412   1.085       .  S
C405        H413   1.086       .  S
C405        C406   1.352       .  D
C406        H414   1.084       .  S
C415        C423   1.489       .  S
C415        C416   1.404       .  A
C415        C420   1.408       .  A
C416        C417   1.400       .  A
C416        H425   1.082       .  S
C417        C418   1.407       .  A
C417        H426   1.083       .  S
C418        C421   1.487       .  S
C418        C419   1.403       .  A
C419        C420   1.401       .  A
C419        H427   1.082       .  S
C420        H428   1.082       .  S
C421        H429   1.087       .  S
C421        C422   1.346       .  D
C422        H430   1.086       .  S
C423        H431   1.084       .  S
C423        C424   1.353       .  D
C424        H432   1.086       .  S
C433        C441   1.478       .  S
C433        C434   1.400       .  A
C433        C438   1.407       .  A
C434        C435   1.390       .  A
C434        H443   1.083       .  S
C435        C436   1.404       .  A
C435        H444   1.083       .  S
C436        C439   1.485       .  S
C436        C437   1.405       .  A
C437        C438   1.406       .  A
C437        H445   1.083       .  S
C438        H446   1.083       .  S
C439        H447   1.086       .  S
C439        C440   1.345       .  D
C440        H448   1.087       .  S
C441        H449   1.087       .  S
C441        C442   1.349       .  D
C442        H450   1.086       .  S
C451        C459   1.487       .  S
C451        C452   1.405       .  A
C451        C456   1.406       .  A
C452        C453   1.401       .  A
C452        H461   1.083       .  S
C453        C454   1.408       .  A
C453        H462   1.083       .  S
C454        C457   1.489   1_554  S
C454        C455   1.404       .  A
C455        C456   1.400       .  A
C455        H463   1.082       .  S
C456        H464   1.082       .  S
C457        H465   1.086       .  S
C457        C458   1.349       .  D
C458        H466   1.086       .  S
C459        H467   1.087       .  S
C459        C460   1.351       .  D
C460        H468   1.085       .  S
C469        C477   1.483       .  S
C469        C470   1.403       .  A
C469        C474   1.406       .  A
C470        C471   1.399       .  A
C470        H479   1.085       .  S
C471        C472   1.403       .  A
C471        H480   1.082       .  S
C472        C475   1.483       .  S
C472        C473   1.408       .  A
C473        C474   1.396       .  A
C473        H481   1.083       .  S
C474        H482   1.082       .  S
C475        H483   1.084       .  S
C475        C476   1.351       .  D
C476        H484   1.087       .  S
C477        H485   1.088       .  S
C477        C478   1.344       .  D
C478        H486   1.086       .  S
C487        C495   1.493       .  S
C487        C488   1.406       .  A
C487        C492   1.410       .  A
C488        C489   1.398       .  A
C488        H497   1.084       .  S
C489        C490   1.405       .  A
C489        H498   1.083       .  S
C490        C493   1.490       .  S
C490        C491   1.404       .  A
C491        C492   1.403       .  A
C491        H499   1.083       .  S
C492        H500   1.081       .  S
C493        H501   1.087       .  S
C493        C494   1.347       .  D
C494        H502   1.086       .  S
C495        H503   1.085       .  S
C495        C496   1.355       .  D
C496        H504   1.084       .  S
C505        C513   1.493       .  S
C505        C506   1.406       .  A
C505        C510   1.408       .  A
C506        C507   1.402       .  A
C506        H515   1.083       .  S
C507        C508   1.408       .  A
C507        H516   1.081       .  S
C508        C511   1.490       .  S
C508        C509   1.404       .  A
C509        C510   1.398       .  A
C509        H517   1.083       .  S
C510        H518   1.080       .  S
C511        H519   1.087       .  S
C511        C512   1.351       .  D
C512        H520   1.084       .  S
C513        H521   1.086       .  S
C513        C514   1.351       .  D
C514        H522   1.084       .  S
C523        C531   1.484       .  S
C523        C524   1.402       .  A
C523        C528   1.406       .  A
C524        C525   1.401       .  A
C524        H533   1.083       .  S
C525        C526   1.410       .  A
C525        H534   1.081       .  S
C526        C529   1.486       .  S
C526        C527   1.403       .  A
C527        C528   1.395       .  A
C527        H535   1.084       .  S
C528        H536   1.082       .  S
C529        H537   1.082       .  S
C529        C530   1.350       .  D
C530        H538   1.084       .  S
C531        H539   1.086       .  S
C531        C532   1.348       .  D
C532        H540   1.087       .  S
C541        C549   1.478       .  S
C541        C542   1.401       .  A
C541        C546   1.407       .  A
C542        C543   1.393       .  A
C542        H551   1.084       .  S
C543        C544   1.405       .  A
C543        H552   1.083       .  S
C544        C547   1.484       .  S
C544        C545   1.404       .  A
C545        C546   1.404       .  A
C545        H553   1.083       .  S
C546        H554   1.083       .  S
C547        H555   1.086       .  S
C547        C548   1.345       .  D
C548        H556   1.086       .  S
C549        H557   1.086       .  S
C549        C550   1.350       .  D
C550        H558   1.086       .  S
C559        C567   1.493       .  S
C559        C560   1.404       .  A
C559        C564   1.409       .  A
C560        C561   1.400       .  A
C560        H569   1.083       .  S
C561        C562   1.410       .  A
C561        H570   1.081       .  S
C562        C565   1.492   1_554  S
C562        C563   1.403       .  A
C563        C564   1.400       .  A
C563        H571   1.084       .  S
C564        H572   1.081       .  S
C565        H573   1.088       .  S
C565        C566   1.349       .  D
C566        H574   1.086       .  S
C567        H575   1.082       .  S
C567        C568   1.349       .  D
C568        H576   1.085       .  S
C577        C585   1.481       .  S
C577        C578   1.406       .  A
C577        C582   1.404       .  A
C578        C579   1.396       .  A
C578        H587   1.080       .  S
C579        C580   1.407       .  A
C579        H588   1.080       .  S
C580        C583   1.480       .  S
C580        C581   1.401       .  A
C581        C582   1.395       .  A
C581        H589   1.084       .  S
C582        H590   1.084       .  S
C583        H591   1.087       .  S
C583        C584   1.348       .  D
C584        H592   1.085       .  S
C585        H593   1.088       .  S
C585        C586   1.352       .  D
C586        H594   1.084       .  S
C595        C603   1.492       .  S
C595        C596   1.404       .  A
C595        C600   1.409       .  A
C596        C597   1.398       .  A
C596        H605   1.084       .  S
C597        C598   1.408       .  A
C597        H606   1.081       .  S
C598        C601   1.490       .  S
C598        C599   1.405       .  A
C599        C600   1.402       .  A
C599        H607   1.084       .  S
C600        H608   1.080       .  S
C601        H609   1.086       .  S
C601        C602   1.352       .  D
C602        H610   1.084       .  S
C603        H611   1.087       .  S
C603        C604   1.347       .  D
C604        H612   1.084       .  S
C613        C621   1.488       .  S
C613        C614   1.403       .  A
C613        C618   1.408       .  A
C614        C615   1.398       .  A
C614        H623   1.083       .  S
C615        C616   1.408       .  A
C615        H624   1.081       .  S
C616        C619   1.492       .  S
C616        C617   1.405       .  A
C617        C618   1.401       .  A
C617        H625   1.083       .  S
C618        H626   1.081       .  S
C619        H627   1.087       .  S
C619        C620   1.346       .  D
C620        H628   1.084       .  S
C621        H629   1.082       .  S
C621        C622   1.352       .  D
C622        H630   1.085       .  S
C631        C639   1.492       .  S
C631        C632   1.407       .  A
C631        C636   1.408       .  A
C632        C633   1.406       .  A
C632        H641   1.083       .  S
C633        C634   1.409       .  A
C633        H642   1.082       .  S
C634        C637   1.484       .  S
C634        C635   1.400       .  A
C635        C636   1.389       .  A
C635        H643   1.084       .  S
C636        H644   1.081       .  S
C637        H645   1.088       .  S
C637        C638   1.345       .  D
C638        H646   1.085       .  S
C639        H647   1.085       .  S
C639        C640   1.349       .  D
C640        H648   1.086       .  S
